data_image0
_chemical_formula_structural       C18H17C4NC2NHNHC2NC2NHNHC3NC3NC5NC4NC35H25C2H2CH3C4H2CH3
_chemical_formula_sum              "C86 H56 N10"
_cell_length_a       29.9826
_cell_length_b       29.9825
_cell_length_c       14.8547
_cell_angle_alpha    90
_cell_angle_beta     90
_cell_angle_gamma    89.9285

_space_group_name_H-M_alt    "P 1"
_space_group_IT_number       1

loop_
  _space_group_symop_operation_xyz
  'x, y, z'

loop_
  _atom_site_type_symbol
  _atom_site_label
  _atom_site_symmetry_multiplicity
  _atom_site_fract_x
  _atom_site_fract_y
  _atom_site_fract_z
  _atom_site_occupancy
  C   C1        1.0  0.09893  0.04784  0.34316  1.0000
  C   C2        1.0  0.99179  0.24134  0.26905  1.0000
  C   C3        1.0  0.99190  0.19435  0.26905  1.0000
  C   C4        1.0  0.96701  0.33795  0.31645  1.0000
  C   C5        1.0  0.96754  0.38492  0.31489  1.0000
  C   C6        1.0  0.00595  0.40929  0.34057  1.0000
  C   C7        1.0  0.23886  0.01100  0.25832  1.0000
  C   C8        1.0  0.19186  0.01053  0.25923  1.0000
  C   C9        1.0  0.38294  0.03780  0.28350  1.0000
  C   C10       1.0  0.33592  0.03738  0.28424  1.0000
  C   C11       1.0  0.00944  0.81662  0.25976  1.0000
  C   C12       1.0  0.01044  0.76964  0.25841  1.0000
  C   C13       1.0  0.03812  0.62555  0.28262  1.0000
  C   C14       1.0  0.03741  0.67257  0.28382  1.0000
  C   C15       1.0  0.81391  0.99343  0.26995  1.0000
  C   C16       1.0  0.76693  0.99327  0.27013  1.0000
  C   C17       1.0  0.67069  0.96769  0.31828  1.0000
  C   C18       1.0  0.62371  0.96784  0.31697  1.0000
  H   H1        1.0  0.60768  0.93935  0.29734  1.0000
  H   H2        1.0  0.68713  0.93933  0.29893  1.0000
  H   H3        1.0  0.75059  0.98505  0.21196  1.0000
  H   H4        1.0  0.83044  0.98498  0.21210  1.0000
  H   H5        1.0  0.01295  0.83371  0.20053  1.0000
  H   H6        1.0  0.01401  0.75400  0.19761  1.0000
  H   H7        1.0  0.09367  0.15539  0.34160  1.0000
  H   H8        1.0  0.17493  0.01404  0.19980  1.0000
  H   H9        1.0  0.25466  0.01421  0.19764  1.0000
  H   H10       1.0  0.31942  0.06061  0.24630  1.0000
  H   H11       1.0  0.39914  0.06079  0.24449  1.0000
  H   H12       1.0  0.98351  0.17778  0.21123  1.0000
  H   H13       1.0  0.98365  0.25765  0.21078  1.0000
  H   H14       1.0  0.93919  0.40123  0.29514  1.0000
  H   H15       1.0  0.93852  0.32179  0.29716  1.0000
  H   H16       1.0  0.06071  0.68926  0.24652  1.0000
  H   H17       1.0  0.06141  0.60953  0.24390  1.0000
  C   C19       1.0  0.00785  0.55324  0.33346  1.0000
  C   C20       1.0  0.99228  0.52881  0.25835  1.0000
  C   C21       1.0  0.99204  0.48129  0.25933  1.0000
  C   C22       1.0  0.00697  0.45718  0.33608  1.0000
  N   N1        1.0  0.97714  0.46014  0.18402  1.0000
  C   C23       1.0  0.96184  0.48158  0.10993  1.0000
  C   C24       1.0  0.96123  0.52852  0.10941  1.0000
  N   N2        1.0  0.97646  0.54997  0.18389  1.0000
  H   H18       1.0  0.95053  0.46360  0.05621  1.0000
  N   N3        1.0  0.94405  0.55245  0.03517  1.0000
  H   H19       1.0  0.93744  0.58480  0.05376  1.0000
  C   C25       1.0  0.47953  0.99176  0.26061  1.0000
  C   C26       1.0  0.52704  0.99163  0.26164  1.0000
  N   N4        1.0  0.54827  0.97667  0.18641  1.0000
  C   C27       1.0  0.52691  0.96123  0.11239  1.0000
  C   C28       1.0  0.47998  0.96049  0.11184  1.0000
  N   N5        1.0  0.45845  0.97577  0.18623  1.0000
  H   H20       1.0  0.54496  0.94982  0.05880  1.0000
  N   N6        1.0  0.45614  0.94298  0.03783  1.0000
  H   H21       1.0  0.42381  0.93641  0.05645  1.0000
  C   C29       1.0  0.88770  0.08791  0.34790  1.0000
  C   C30       1.0  0.92020  0.12048  0.34871  1.0000
  C   C31       1.0  0.96192  0.09966  0.34797  1.0000
  N   N7        1.0  0.95298  0.05525  0.34822  1.0000
  C   C32       1.0  0.90859  0.04621  0.34836  1.0000
  C   C33       1.0  0.88590  0.00441  0.34835  1.0000
  C   C34       1.0  0.90764  0.96218  0.34741  1.0000
  N   N8        1.0  0.95196  0.95354  0.34549  1.0000
  C   C35       1.0  0.96080  0.90926  0.34502  1.0000
  C   C36       1.0  0.91936  0.88806  0.34673  1.0000
  C   C37       1.0  0.88672  0.92057  0.34886  1.0000
  C   C38       1.0  0.00308  0.88772  0.34303  1.0000
  C   C39       1.0  0.04482  0.91041  0.34247  1.0000
  N   N9        1.0  0.05368  0.95480  0.34291  1.0000
  C   C40       1.0  0.09805  0.96381  0.34250  1.0000
  C   C41       1.0  0.11905  0.92218  0.34174  1.0000
  C   C42       1.0  0.08655  0.88957  0.34201  1.0000
  C   C43       1.0  0.12058  0.00562  0.34218  1.0000
  N   N10       1.0  0.05465  0.05653  0.34554  1.0000
  C   C44       1.0  0.04593  0.10083  0.34591  1.0000
  C   C45       1.0  0.08745  0.12190  0.34311  1.0000
  C   C46       1.0  0.12003  0.08934  0.34205  1.0000
  C   C47       1.0  0.00366  0.12244  0.34745  1.0000
  C   C48       1.0  0.00331  0.17025  0.34755  1.0000
  C   C49       1.0  0.01512  0.19446  0.42566  1.0000
  C   C50       1.0  0.01592  0.24145  0.42498  1.0000
  C   C51       1.0  0.00406  0.26574  0.34681  1.0000
  C   C52       1.0  0.00454  0.31340  0.34613  1.0000
  C   C53       1.0  0.04328  0.38457  0.37123  1.0000
  C   C54       1.0  0.04251  0.33758  0.37454  1.0000
  C   C55       1.0  0.16829  0.00535  0.34087  1.0000
  C   C56       1.0  0.19285  0.00053  0.42140  1.0000
  C   C57       1.0  0.23984  0.00078  0.42014  1.0000
  C   C58       1.0  0.26391  0.00612  0.33868  1.0000
  C   C59       1.0  0.31180  0.00654  0.33771  1.0000
  C   C60       1.0  0.33683  0.97589  0.38999  1.0000
  C   C61       1.0  0.38381  0.97623  0.38937  1.0000
  C   C62       1.0  0.40751  0.00738  0.33662  1.0000
  C   C63       1.0  0.00363  0.83999  0.34151  1.0000
  C   C64       1.0  0.00541  0.74434  0.33841  1.0000
  C   C65       1.0  0.99948  0.76819  0.42000  1.0000
  C   C66       1.0  0.99876  0.81517  0.42171  1.0000
  C   C67       1.0  0.00615  0.69645  0.33693  1.0000
  C   C68       1.0  0.97538  0.67116  0.38828  1.0000
  C   C69       1.0  0.97600  0.62419  0.38713  1.0000
  C   C70       1.0  0.00760  0.60074  0.33485  1.0000
  C   C71       1.0  0.83808  0.00475  0.34841  1.0000
  C   C72       1.0  0.81388  0.01644  0.42667  1.0000
  C   C73       1.0  0.76688  0.01722  0.42616  1.0000
  C   C74       1.0  0.74256  0.00534  0.34808  1.0000
  C   C75       1.0  0.69489  0.00543  0.34774  1.0000
  C   C76       1.0  0.59897  0.00606  0.34270  1.0000
  C   C77       1.0  0.62334  0.04360  0.37318  1.0000
  C   C78       1.0  0.67034  0.04321  0.37626  1.0000
  H   H22       1.0  0.60703  0.07216  0.39173  1.0000
  H   H23       1.0  0.68659  0.07141  0.39694  1.0000
  H   H24       1.0  0.75049  0.02562  0.48418  1.0000
  H   H25       1.0  0.83041  0.02470  0.48460  1.0000
  H   H26       1.0  0.85423  0.09436  0.34730  1.0000
  H   H27       1.0  0.91369  0.15394  0.34908  1.0000
  H   H28       1.0  0.97565  0.03262  0.34860  1.0000
  H   H29       1.0  0.03099  0.97742  0.34288  1.0000
  H   H30       1.0  0.85326  0.91424  0.35121  1.0000
  H   H31       1.0  0.91330  0.85452  0.34703  1.0000
  H   H32       1.0  0.99476  0.83119  0.48204  1.0000
  H   H33       1.0  0.99652  0.75150  0.47977  1.0000
  H   H34       1.0  0.09299  0.85609  0.34196  1.0000
  H   H35       1.0  0.15255  0.91588  0.34111  1.0000
  H   H36       1.0  0.15353  0.09550  0.33998  1.0000
  H   H37       1.0  0.17665  0.99703  0.48166  1.0000
  H   H38       1.0  0.25636  0.99796  0.48015  1.0000
  H   H39       1.0  0.40061  0.95284  0.42628  1.0000
  H   H40       1.0  0.32103  0.95218  0.42787  1.0000
  H   H41       1.0  0.07057  0.32107  0.39537  1.0000
  H   H42       1.0  0.07195  0.40061  0.38978  1.0000
  H   H43       1.0  0.02453  0.25787  0.48283  1.0000
  H   H44       1.0  0.02360  0.17796  0.48353  1.0000
  H   H45       1.0  0.95137  0.68678  0.42578  1.0000
  H   H46       1.0  0.95251  0.60722  0.42334  1.0000
  C   C79       1.0  0.02291  0.48227  0.41023  1.0000
  C   C80       1.0  0.02339  0.52924  0.40896  1.0000
  H   H47       1.0  0.03535  0.54592  0.46399  1.0000
  H   H48       1.0  0.03364  0.46645  0.46735  1.0000
  C   C81       1.0  0.97501  0.55357  0.62442  1.0000
  H   H49       1.0  0.98158  0.51990  0.59972  1.0000
  H   H50       1.0  0.00660  0.56946  0.64224  1.0000
  H   H51       1.0  0.95964  0.57249  0.56998  1.0000
  C   C82       1.0  0.45500  0.00738  0.33563  1.0000
  C   C83       1.0  0.55107  0.00674  0.33832  1.0000
  C   C84       1.0  0.52588  0.02260  0.41246  1.0000
  C   C85       1.0  0.47891  0.02295  0.41118  1.0000
  H   H52       1.0  0.46216  0.03492  0.46616  1.0000
  H   H53       1.0  0.54163  0.03341  0.46956  1.0000
  C   C86       1.0  0.45495  0.97357  0.62648  1.0000
  H   H54       1.0  0.48860  0.98014  0.60179  1.0000
  H   H55       1.0  0.43885  0.00519  0.64362  1.0000
  H   H56       1.0  0.43619  0.95788  0.57224  1.0000
