data_image0
_chemical_formula_structural       CHCNCH2C2NCHNCHNC21H13C24H15C2NC2ONH2C2NC2ONH2C3ONH2
_chemical_formula_sum              "C63 H39 N9 O3"
_cell_length_a       29.8043
_cell_length_b       29.8042
_cell_length_c       14.8425
_cell_angle_alpha    90
_cell_angle_beta     90
_cell_angle_gamma    120

_space_group_name_H-M_alt    "P 1"
_space_group_IT_number       1

loop_
  _space_group_symop_operation_xyz
  'x, y, z'

loop_
  _atom_site_type_symbol
  _atom_site_label
  _atom_site_symmetry_multiplicity
  _atom_site_fract_x
  _atom_site_fract_y
  _atom_site_fract_z
  _atom_site_occupancy
  C   C1        1.0  0.03145  0.50528  0.26596  1.0000
  H   H1        1.0  0.04671  0.50551  0.20426  1.0000
  C   C2        1.0  0.06309  0.53219  0.34032  1.0000
  N   N1        1.0  0.03744  0.52952  0.41779  1.0000
  C   C3        1.0  0.11861  0.56016  0.33902  1.0000
  H   H2        1.0  0.12923  0.51594  0.23734  1.0000
  H   H3        1.0  0.12809  0.61357  0.44263  1.0000
  C   C4        1.0  0.14754  0.54670  0.28036  1.0000
  C   C5        1.0  0.14697  0.60211  0.39884  1.0000
  N   N2        1.0  0.53316  0.50173  0.27524  1.0000
  C   C6        1.0  0.50798  0.52882  0.26594  1.0000
  H   H4        1.0  0.50774  0.54385  0.20424  1.0000
  N   N3        1.0  0.51146  0.03407  0.27528  1.0000
  C   C7        1.0  0.48435  0.98180  0.26598  1.0000
  H   H5        1.0  0.46939  0.96655  0.20424  1.0000
  N   N4        1.0  0.97918  0.48009  0.27527  1.0000
  C   C8        1.0  0.28585  0.64409  0.34094  1.0000
  C   C9        1.0  0.31430  0.61768  0.34096  1.0000
  C   C10       1.0  0.36917  0.64441  0.34092  1.0000
  C   C11       1.0  0.39557  0.69927  0.34095  1.0000
  C   C12       1.0  0.36885  0.72740  0.34092  1.0000
  C   C13       1.0  0.31399  0.69895  0.34096  1.0000
  C   C14       1.0  0.39707  0.61677  0.34038  1.0000
  C   C15       1.0  0.38350  0.57444  0.39905  1.0000
  C   C16       1.0  0.41115  0.54751  0.39882  1.0000
  C   C17       1.0  0.45310  0.56110  0.33900  1.0000
  C   C18       1.0  0.46657  0.60350  0.28036  1.0000
  C   C19       1.0  0.43932  0.63084  0.28127  1.0000
  C   C20       1.0  0.23031  0.61619  0.34039  1.0000
  C   C21       1.0  0.20212  0.57393  0.28130  1.0000
  C   C22       1.0  0.20155  0.62976  0.39906  1.0000
  C   C23       1.0  0.39648  0.78294  0.34037  1.0000
  C   C24       1.0  0.38241  0.81113  0.28127  1.0000
  C   C25       1.0  0.40974  0.86571  0.28037  1.0000
  C   C26       1.0  0.45216  0.89465  0.33899  1.0000
  C   C27       1.0  0.46575  0.86628  0.39879  1.0000
  C   C28       1.0  0.43884  0.81171  0.39899  1.0000
  H   H6        1.0  0.22119  0.56292  0.23705  1.0000
  H   H7        1.0  0.22019  0.65950  0.44407  1.0000
  H   H8        1.0  0.35230  0.79205  0.23709  1.0000
  H   H9        1.0  0.39728  0.88402  0.23736  1.0000
  H   H10       1.0  0.44994  0.79307  0.44403  1.0000
  H   H11       1.0  0.49610  0.88517  0.44256  1.0000
  H   H12       1.0  0.45032  0.66091  0.23703  1.0000
  H   H13       1.0  0.49731  0.61594  0.23730  1.0000
  H   H14       1.0  0.39969  0.51717  0.44263  1.0000
  H   H15       1.0  0.35376  0.56334  0.44407  1.0000
  H   H16       1.0  0.29458  0.57800  0.34083  1.0000
  H   H17       1.0  0.29403  0.71867  0.34084  1.0000
  H   H18       1.0  0.43525  0.71922  0.34081  1.0000
  C   C29       1.0  0.73034  0.36705  0.34115  1.0000
  C   C30       1.0  0.70114  0.39274  0.34111  1.0000
  C   C31       1.0  0.64621  0.36593  0.34114  1.0000
  C   C32       1.0  0.62051  0.31104  0.34109  1.0000
  C   C33       1.0  0.64732  0.28292  0.34113  1.0000
  C   C34       1.0  0.70222  0.31212  0.34111  1.0000
  C   C35       1.0  0.61778  0.39343  0.34249  1.0000
  C   C36       1.0  0.63551  0.44077  0.29545  1.0000
  C   C37       1.0  0.60859  0.46839  0.29898  1.0000
  C   C38       1.0  0.56237  0.44995  0.34945  1.0000
  C   C39       1.0  0.54332  0.40162  0.39331  1.0000
  C   C40       1.0  0.57078  0.37453  0.39115  1.0000
  C   C41       1.0  0.78626  0.39548  0.34252  1.0000
  C   C42       1.0  0.81436  0.44248  0.39118  1.0000
  C   C43       1.0  0.86891  0.46993  0.39333  1.0000
  C   C44       1.0  0.89819  0.45089  0.34948  1.0000
  C   C45       1.0  0.87041  0.40466  0.29901  1.0000
  C   C46       1.0  0.81586  0.37774  0.29548  1.0000
  C   C47       1.0  0.61983  0.22700  0.34249  1.0000
  C   C48       1.0  0.63870  0.19890  0.39119  1.0000
  C   C49       1.0  0.61159  0.14435  0.39337  1.0000
  C   C50       1.0  0.56328  0.11507  0.34947  1.0000
  C   C51       1.0  0.54488  0.14285  0.29891  1.0000
  C   C52       1.0  0.57250  0.19740  0.29540  1.0000
  H   H19       1.0  0.88706  0.50419  0.42792  1.0000
  H   H20       1.0  0.79536  0.45707  0.42747  1.0000
  H   H21       1.0  0.88974  0.38954  0.26505  1.0000
  H   H22       1.0  0.79799  0.34492  0.25697  1.0000
  H   H23       1.0  0.67229  0.21790  0.42752  1.0000
  H   H24       1.0  0.62769  0.12620  0.42800  1.0000
  H   H25       1.0  0.55757  0.21528  0.25685  1.0000
  H   H26       1.0  0.51043  0.12353  0.26494  1.0000
  H   H27       1.0  0.55618  0.34093  0.42743  1.0000
  H   H28       1.0  0.50906  0.38551  0.42788  1.0000
  H   H29       1.0  0.62372  0.50285  0.26503  1.0000
  H   H30       1.0  0.66834  0.45572  0.25695  1.0000
  H   H31       1.0  0.72054  0.43233  0.34143  1.0000
  H   H32       1.0  0.72240  0.29272  0.34144  1.0000
  H   H33       1.0  0.58093  0.29085  0.34139  1.0000
  C   C53       1.0  0.53566  0.47872  0.35296  1.0000
  C   C54       1.0  0.48107  0.53354  0.34031  1.0000
  N   N5        1.0  0.48374  0.51057  0.41777  1.0000
  C   C55       1.0  0.50942  0.48391  0.42904  1.0000
  C   C56       1.0  0.50995  0.46692  0.51794  1.0000
  O   O1        1.0  0.46736  0.45150  0.56985  1.0000
  N   N6        1.0  0.55297  0.47203  0.55816  1.0000
  H   H34       1.0  0.58633  0.48886  0.52780  1.0000
  H   H35       1.0  0.55216  0.46340  0.62155  1.0000
  C   C57       1.0  0.53450  0.05959  0.35298  1.0000
  C   C58       1.0  0.47970  0.95017  0.34031  1.0000
  N   N7        1.0  0.50270  0.97581  0.41775  1.0000
  C   C59       1.0  0.52940  0.02816  0.42900  1.0000
  C   C60       1.0  0.54629  0.04563  0.51795  1.0000
  O   O2        1.0  0.56200  0.01866  0.56977  1.0000
  N   N8        1.0  0.54098  0.08339  0.55825  1.0000
  H   H36       1.0  0.52460  0.10031  0.52768  1.0000
  H   H37       1.0  0.55021  0.09171  0.62134  1.0000
  C   C61       1.0  0.95366  0.47759  0.35298  1.0000
  C   C62       1.0  0.98509  0.50383  0.42906  1.0000
  C   C63       1.0  0.96759  0.50331  0.51797  1.0000
  O   O3        1.0  0.99476  0.54590  0.56988  1.0000
  N   N9        1.0  0.92967  0.46028  0.55818  1.0000
  H   H38       1.0  0.91315  0.42693  0.52783  1.0000
  H   H39       1.0  0.92186  0.46110  0.62158  1.0000
