data_image0
_chemical_formula_structural       C2HC5H3C2HC5H3C2HC5H3C2NC3NHCH3C2NC3NHCH3C2NC3NHCH3CNCNCNC18H12CNCNCNC18H12CNCNCNC18H12CNCNCNC18H12C2NC3NHCH3C2NC3NHCH3C2NC3NHCH3C2HC5H3C2HC5H3C2HC5H3
_chemical_formula_sum              "C162 H96 N24"
_cell_length_a       56.2766
_cell_length_b       56.2766
_cell_length_c       14.9881
_cell_angle_alpha    90
_cell_angle_beta     90
_cell_angle_gamma    120

_space_group_name_H-M_alt    "P 1"
_space_group_IT_number       1

loop_
  _space_group_symop_operation_xyz
  'x, y, z'

loop_
  _atom_site_type_symbol
  _atom_site_label
  _atom_site_symmetry_multiplicity
  _atom_site_fract_x
  _atom_site_fract_y
  _atom_site_fract_z
  _atom_site_occupancy
  C   C1        1.0  0.24089  0.12052  0.25080  1.0000
  C   C2        1.0  0.26982  0.13497  0.25437  1.0000
  H   H1        1.0  0.28084  0.14048  0.19610  1.0000
  C   C3        1.0  0.13942  0.06981  0.33210  1.0000
  C   C4        1.0  0.15373  0.07696  0.25020  1.0000
  C   C5        1.0  0.18271  0.09145  0.24879  1.0000
  C   C6        1.0  0.19764  0.09890  0.16806  1.0000
  C   C7        1.0  0.22649  0.11332  0.16905  1.0000
  H   H2        1.0  0.18764  0.09390  0.10800  1.0000
  H   H3        1.0  0.23688  0.11851  0.10970  1.0000
  H   H4        1.0  0.14299  0.07159  0.19143  1.0000
  C   C8        1.0  0.87086  0.12056  0.25080  1.0000
  C   C9        1.0  0.85640  0.13503  0.25437  1.0000
  H   H5        1.0  0.85089  0.14055  0.19611  1.0000
  C   C10       1.0  0.92158  0.06980  0.33210  1.0000
  C   C11       1.0  0.91442  0.07697  0.25020  1.0000
  C   C12       1.0  0.89994  0.09146  0.24879  1.0000
  C   C13       1.0  0.89248  0.09893  0.16806  1.0000
  C   C14       1.0  0.87806  0.11336  0.16906  1.0000
  H   H6        1.0  0.89748  0.09393  0.10801  1.0000
  H   H7        1.0  0.87287  0.11856  0.10971  1.0000
  H   H8        1.0  0.91980  0.07160  0.19143  1.0000
  C   C15       1.0  0.87081  0.75050  0.25080  1.0000
  C   C16       1.0  0.85633  0.72157  0.25438  1.0000
  H   H9        1.0  0.85082  0.71055  0.19611  1.0000
  C   C17       1.0  0.92158  0.85197  0.33210  1.0000
  C   C18       1.0  0.91442  0.83766  0.25020  1.0000
  C   C19       1.0  0.89992  0.80867  0.24879  1.0000
  C   C20       1.0  0.89245  0.79375  0.16806  1.0000
  C   C21       1.0  0.87801  0.76489  0.16906  1.0000
  H   H10       1.0  0.89745  0.80375  0.10801  1.0000
  H   H11       1.0  0.87281  0.75451  0.10971  1.0000
  H   H12       1.0  0.91979  0.84840  0.19143  1.0000
  C   C22       1.0  0.63174  0.14816  0.33084  1.0000
  C   C23       1.0  0.61685  0.14563  0.25140  1.0000
  N   N1        1.0  0.59124  0.14219  0.25828  1.0000
  C   C24       1.0  0.57838  0.14051  0.33664  1.0000
  C   C25       1.0  0.55329  0.14049  0.33775  1.0000
  C   C26       1.0  0.51949  0.14565  0.25716  1.0000
  N   N2        1.0  0.54174  0.14235  0.26030  1.0000
  H   H13       1.0  0.51315  0.14871  0.19647  1.0000
  C   C27       1.0  0.62758  0.14811  0.15961  1.0000
  H   H14       1.0  0.64787  0.15011  0.15798  1.0000
  H   H15       1.0  0.62882  0.16607  0.12723  1.0000
  H   H16       1.0  0.61368  0.12986  0.12144  1.0000
  C   C28       1.0  0.84327  0.48383  0.33085  1.0000
  C   C29       1.0  0.84582  0.47148  0.25142  1.0000
  N   N3        1.0  0.84924  0.44929  0.25826  1.0000
  C   C30       1.0  0.85088  0.43809  0.33659  1.0000
  C   C31       1.0  0.85088  0.41300  0.33762  1.0000
  C   C32       1.0  0.84568  0.37404  0.25702  1.0000
  N   N4        1.0  0.84903  0.39961  0.26016  1.0000
  H   H17       1.0  0.84275  0.36469  0.19629  1.0000
  C   C33       1.0  0.84333  0.47973  0.15964  1.0000
  H   H18       1.0  0.84134  0.49803  0.15802  1.0000
  H   H19       1.0  0.82536  0.46302  0.12729  1.0000
  H   H20       1.0  0.86157  0.48407  0.12142  1.0000
  C   C34       1.0  0.50760  0.35964  0.33089  1.0000
  C   C35       1.0  0.51992  0.37454  0.25144  1.0000
  N   N5        1.0  0.54210  0.40014  0.25829  1.0000
  C   C36       1.0  0.55330  0.41299  0.33663  1.0000
  C   C37       1.0  0.57839  0.43808  0.33765  1.0000
  C   C38       1.0  0.61732  0.47186  0.25696  1.0000
  N   N6        1.0  0.59176  0.44962  0.26015  1.0000
  H   H21       1.0  0.62668  0.47823  0.19622  1.0000
  C   C39       1.0  0.51167  0.36379  0.15965  1.0000
  H   H22       1.0  0.49338  0.34351  0.15804  1.0000
  H   H23       1.0  0.52838  0.36255  0.12729  1.0000
  H   H24       1.0  0.50732  0.37769  0.12146  1.0000
  C   C40       1.0  0.98003  0.96886  0.33683  1.0000
  N   N7        1.0  0.00793  0.98346  0.33678  1.0000
  C   C41       1.0  0.02253  0.01136  0.33683  1.0000
  N   N8        1.0  0.00792  0.02466  0.33678  1.0000
  C   C42       1.0  0.98003  0.01136  0.33683  1.0000
  N   N9        1.0  0.96673  0.98346  0.33678  1.0000
  C   C43       1.0  0.05182  0.02601  0.33628  1.0000
  C   C44       1.0  0.06692  0.01200  0.33579  1.0000
  C   C45       1.0  0.09579  0.02640  0.33464  1.0000
  C   C46       1.0  0.11045  0.05533  0.33405  1.0000
  C   C47       1.0  0.09579  0.06960  0.33464  1.0000
  C   C48       1.0  0.06692  0.05511  0.33579  1.0000
  C   C49       1.0  0.96538  0.93957  0.33628  1.0000
  C   C50       1.0  0.97939  0.92447  0.33579  1.0000
  C   C51       1.0  0.96499  0.89560  0.33464  1.0000
  C   C52       1.0  0.93606  0.88093  0.33404  1.0000
  C   C53       1.0  0.92180  0.89560  0.33464  1.0000
  C   C54       1.0  0.93628  0.92447  0.33579  1.0000
  C   C55       1.0  0.96538  0.02601  0.33628  1.0000
  C   C56       1.0  0.93627  0.01200  0.33579  1.0000
  C   C57       1.0  0.92179  0.02639  0.33464  1.0000
  C   C58       1.0  0.93606  0.05532  0.33405  1.0000
  C   C59       1.0  0.96499  0.06959  0.33463  1.0000
  C   C60       1.0  0.97938  0.05511  0.33579  1.0000
  H   H25       1.0  0.97579  0.88538  0.33404  1.0000
  H   H26       1.0  0.00036  0.93431  0.33602  1.0000
  H   H27       1.0  0.90079  0.88538  0.33404  1.0000
  H   H28       1.0  0.92514  0.93431  0.33603  1.0000
  H   H29       1.0  0.92513  0.99102  0.33603  1.0000
  H   H30       1.0  0.90079  0.01560  0.33406  1.0000
  H   H31       1.0  0.00036  0.06625  0.33601  1.0000
  H   H32       1.0  0.97578  0.09060  0.33404  1.0000
  H   H33       1.0  0.05708  0.06625  0.33602  1.0000
  H   H34       1.0  0.10600  0.09060  0.33405  1.0000
  H   H35       1.0  0.10600  0.01560  0.33406  1.0000
  H   H36       1.0  0.05708  0.99103  0.33603  1.0000
  C   C61       1.0  0.44314  0.20033  0.33270  1.0000
  N   N10       1.0  0.41525  0.18696  0.33405  1.0000
  C   C62       1.0  0.40071  0.20040  0.33426  1.0000
  N   N11       1.0  0.41524  0.22839  0.33318  1.0000
  C   C63       1.0  0.44313  0.24290  0.33174  1.0000
  N   N12       1.0  0.45616  0.22814  0.33160  1.0000
  C   C64       1.0  0.37140  0.18576  0.33537  1.0000
  C   C65       1.0  0.35630  0.15665  0.33581  1.0000
  C   C66       1.0  0.32743  0.14217  0.33648  1.0000
  C   C67       1.0  0.31277  0.15644  0.33690  1.0000
  C   C68       1.0  0.32743  0.18537  0.33645  1.0000
  C   C69       1.0  0.35630  0.19976  0.33577  1.0000
  C   C70       1.0  0.45872  0.18664  0.33288  1.0000
  C   C71       1.0  0.44610  0.15765  0.33729  1.0000
  C   C72       1.0  0.46189  0.14453  0.33855  1.0000
  C   C73       1.0  0.49079  0.16016  0.33488  1.0000
  C   C74       1.0  0.50357  0.18899  0.33022  1.0000
  C   C75       1.0  0.48779  0.20195  0.32927  1.0000
  C   C76       1.0  0.45869  0.27217  0.33075  1.0000
  C   C77       1.0  0.48771  0.28593  0.32379  1.0000
  C   C78       1.0  0.50348  0.31466  0.32343  1.0000
  C   C79       1.0  0.49075  0.33073  0.33025  1.0000
  C   C80       1.0  0.46192  0.31747  0.33754  1.0000
  C   C81       1.0  0.44612  0.28856  0.33729  1.0000
  H   H37       1.0  0.45221  0.12358  0.34218  1.0000
  H   H38       1.0  0.42520  0.14570  0.34020  1.0000
  H   H39       1.0  0.52452  0.20085  0.32791  1.0000
  H   H40       1.0  0.49809  0.22291  0.32605  1.0000
  H   H41       1.0  0.49796  0.27525  0.31879  1.0000
  H   H42       1.0  0.52439  0.32375  0.31855  1.0000
  H   H43       1.0  0.42527  0.27961  0.34273  1.0000
  H   H44       1.0  0.45228  0.32874  0.34273  1.0000
  H   H45       1.0  0.36613  0.22074  0.33543  1.0000
  H   H46       1.0  0.31722  0.19616  0.33663  1.0000
  H   H47       1.0  0.31721  0.12116  0.33667  1.0000
  H   H48       1.0  0.36612  0.14550  0.33547  1.0000
  C   C82       1.0  0.79104  0.24299  0.33276  1.0000
  N   N13       1.0  0.80442  0.22848  0.33412  1.0000
  C   C83       1.0  0.79097  0.20049  0.33432  1.0000
  N   N14       1.0  0.76299  0.18704  0.33321  1.0000
  C   C84       1.0  0.74847  0.20041  0.33177  1.0000
  N   N15       1.0  0.76324  0.22821  0.33165  1.0000
  C   C85       1.0  0.80562  0.18584  0.33542  1.0000
  C   C86       1.0  0.83473  0.19984  0.33586  1.0000
  C   C87       1.0  0.84921  0.18544  0.33652  1.0000
  C   C88       1.0  0.83494  0.15651  0.33692  1.0000
  C   C89       1.0  0.80600  0.14225  0.33646  1.0000
  C   C90       1.0  0.79162  0.15673  0.33579  1.0000
  C   C91       1.0  0.80473  0.27226  0.33294  1.0000
  C   C92       1.0  0.83373  0.28865  0.33729  1.0000
  C   C93       1.0  0.84685  0.31756  0.33849  1.0000
  C   C94       1.0  0.83121  0.33082  0.33484  1.0000
  C   C95       1.0  0.80237  0.31476  0.33022  1.0000
  C   C96       1.0  0.78942  0.28602  0.32933  1.0000
  C   C97       1.0  0.71921  0.18671  0.33076  1.0000
  C   C98       1.0  0.70545  0.20198  0.32369  1.0000
  C   C99       1.0  0.67672  0.18902  0.32330  1.0000
  C   C100      1.0  0.66065  0.16023  0.33019  1.0000
  C   C101      1.0  0.67390  0.14465  0.33759  1.0000
  C   C102      1.0  0.70282  0.15776  0.33735  1.0000
  H   H49       1.0  0.86779  0.32883  0.34206  1.0000
  H   H50       1.0  0.84568  0.27970  0.34019  1.0000
  H   H51       1.0  0.79051  0.32385  0.32789  1.0000
  H   H52       1.0  0.76845  0.27535  0.32614  1.0000
  H   H53       1.0  0.71614  0.22291  0.31863  1.0000
  H   H54       1.0  0.66763  0.20084  0.31836  1.0000
  H   H55       1.0  0.71176  0.14586  0.34288  1.0000
  H   H56       1.0  0.66262  0.12373  0.34286  1.0000
  H   H57       1.0  0.77064  0.14558  0.33545  1.0000
  H   H58       1.0  0.79522  0.12124  0.33663  1.0000
  H   H59       1.0  0.87021  0.19623  0.33672  1.0000
  H   H60       1.0  0.84588  0.22081  0.33553  1.0000
  C   C103      1.0  0.74839  0.54825  0.33278  1.0000
  N   N16       1.0  0.76289  0.57614  0.33412  1.0000
  C   C104      1.0  0.79088  0.59068  0.33434  1.0000
  N   N17       1.0  0.80434  0.57615  0.33325  1.0000
  C   C105      1.0  0.79097  0.54827  0.33182  1.0000
  N   N18       1.0  0.76317  0.53523  0.33169  1.0000
  C   C106      1.0  0.80553  0.61998  0.33543  1.0000
  C   C107      1.0  0.79153  0.63509  0.33586  1.0000
  C   C108      1.0  0.80592  0.66396  0.33651  1.0000
  C   C109      1.0  0.83485  0.67862  0.33692  1.0000
  C   C110      1.0  0.84912  0.66396  0.33647  1.0000
  C   C111      1.0  0.83464  0.63509  0.33581  1.0000
  C   C112      1.0  0.71912  0.53266  0.33294  1.0000
  C   C113      1.0  0.70273  0.54527  0.33723  1.0000
  C   C114      1.0  0.67382  0.52947  0.33841  1.0000
  C   C115      1.0  0.66056  0.50058  0.33482  1.0000
  C   C116      1.0  0.67662  0.48780  0.33028  1.0000
  C   C117      1.0  0.70535  0.50358  0.32939  1.0000
  C   C118      1.0  0.80468  0.53271  0.33083  1.0000
  C   C119      1.0  0.78942  0.50369  0.32388  1.0000
  C   C120      1.0  0.80239  0.48792  0.32349  1.0000
  C   C121      1.0  0.83119  0.50066  0.33027  1.0000
  C   C122      1.0  0.84676  0.52950  0.33755  1.0000
  C   C123      1.0  0.83363  0.54528  0.33733  1.0000
  H   H61       1.0  0.66254  0.53915  0.34191  1.0000
  H   H62       1.0  0.71167  0.56617  0.34006  1.0000
  H   H63       1.0  0.66754  0.46685  0.32798  1.0000
  H   H64       1.0  0.71603  0.49329  0.32626  1.0000
  H   H65       1.0  0.76849  0.49343  0.31891  1.0000
  H   H66       1.0  0.79058  0.46701  0.31861  1.0000
  H   H67       1.0  0.84553  0.56614  0.34274  1.0000
  H   H68       1.0  0.86768  0.53914  0.34270  1.0000
  H   H69       1.0  0.84579  0.62526  0.33547  1.0000
  H   H70       1.0  0.87013  0.67418  0.33665  1.0000
  H   H71       1.0  0.79514  0.67418  0.33671  1.0000
  H   H72       1.0  0.77055  0.62526  0.33553  1.0000
  C   C124      1.0  0.28374  0.14193  0.33711  1.0000
  C   C125      1.0  0.26798  0.13406  0.41686  1.0000
  N   N19       1.0  0.24015  0.12015  0.41039  1.0000
  C   C126      1.0  0.22604  0.11310  0.33226  1.0000
  C   C127      1.0  0.19706  0.09862  0.33140  1.0000
  C   C128      1.0  0.15473  0.07746  0.41196  1.0000
  N   N20       1.0  0.18254  0.09136  0.40890  1.0000
  H   H73       1.0  0.14521  0.07271  0.47275  1.0000
  C   C129      1.0  0.27930  0.13972  0.50855  1.0000
  H   H74       1.0  0.30166  0.15089  0.51000  1.0000
  H   H75       1.0  0.27212  0.12037  0.54398  1.0000
  H   H76       1.0  0.27214  0.15190  0.54397  1.0000
  C   C130      1.0  0.84945  0.14199  0.33711  1.0000
  C   C131      1.0  0.85732  0.13411  0.41687  1.0000
  N   N21       1.0  0.87123  0.12019  0.41040  1.0000
  C   C132      1.0  0.87828  0.11313  0.33226  1.0000
  C   C133      1.0  0.89276  0.09864  0.33140  1.0000
  C   C134      1.0  0.91392  0.07746  0.41196  1.0000
  N   N22       1.0  0.90002  0.09137  0.40890  1.0000
  H   H77       1.0  0.91868  0.07269  0.47275  1.0000
  C   C135      1.0  0.85166  0.13977  0.50856  1.0000
  H   H78       1.0  0.84049  0.15095  0.51002  1.0000
  H   H79       1.0  0.87101  0.15194  0.54399  1.0000
  H   H80       1.0  0.83948  0.12042  0.54398  1.0000
  C   C136      1.0  0.84937  0.70765  0.33712  1.0000
  C   C137      1.0  0.85726  0.72341  0.41688  1.0000
  N   N23       1.0  0.87118  0.75124  0.41040  1.0000
  C   C138      1.0  0.87825  0.76535  0.33226  1.0000
  C   C139      1.0  0.89274  0.79433  0.33140  1.0000
  C   C140      1.0  0.91393  0.83666  0.41195  1.0000
  N   N24       1.0  0.90001  0.80885  0.40890  1.0000
  H   H81       1.0  0.91869  0.84618  0.47274  1.0000
  C   C141      1.0  0.85160  0.71209  0.50856  1.0000
  H   H82       1.0  0.84041  0.68974  0.51002  1.0000
  H   H83       1.0  0.83943  0.71927  0.54400  1.0000
  H   H84       1.0  0.87095  0.71925  0.54398  1.0000
  C   C142      1.0  0.59195  0.14182  0.41785  1.0000
  C   C143      1.0  0.61866  0.14552  0.41381  1.0000
  H   H85       1.0  0.62952  0.14867  0.47177  1.0000
  C   C144      1.0  0.50759  0.14810  0.33700  1.0000
  C   C145      1.0  0.51857  0.14558  0.41888  1.0000
  C   C146      1.0  0.54158  0.14180  0.42034  1.0000
  C   C147      1.0  0.55448  0.14166  0.50098  1.0000
  C   C148      1.0  0.57947  0.14166  0.49975  1.0000
  H   H86       1.0  0.54655  0.14300  0.56100  1.0000
  H   H87       1.0  0.58914  0.14299  0.55892  1.0000
  H   H88       1.0  0.51126  0.14885  0.47750  1.0000
  C   C149      1.0  0.84955  0.45033  0.41782  1.0000
  C   C150      1.0  0.84586  0.47334  0.41379  1.0000
  H   H89       1.0  0.84270  0.48104  0.47176  1.0000
  C   C151      1.0  0.84325  0.35967  0.33678  1.0000
  C   C152      1.0  0.84574  0.37316  0.41868  1.0000
  C   C153      1.0  0.84952  0.39995  0.42020  1.0000
  C   C154      1.0  0.84965  0.41297  0.50087  1.0000
  C   C155      1.0  0.84967  0.43798  0.49969  1.0000
  H   H90       1.0  0.84828  0.40369  0.56087  1.0000
  H   H91       1.0  0.84833  0.44631  0.55887  1.0000
  H   H92       1.0  0.84248  0.36259  0.47730  1.0000
  C   C156      1.0  0.54105  0.39943  0.41786  1.0000
  C   C157      1.0  0.51805  0.37272  0.41384  1.0000
  H   H93       1.0  0.51036  0.36185  0.47181  1.0000
  C   C158      1.0  0.63171  0.48377  0.33673  1.0000
  C   C159      1.0  0.61824  0.47276  0.41866  1.0000
  C   C160      1.0  0.59145  0.44977  0.42022  1.0000
  C   C161      1.0  0.57843  0.43688  0.50090  1.0000
  C   C162      1.0  0.55342  0.41190  0.49972  1.0000
  H   H94       1.0  0.58772  0.44480  0.56090  1.0000
  H   H95       1.0  0.54509  0.40223  0.55891  1.0000
  H   H96       1.0  0.62881  0.48010  0.47728  1.0000
