data_image0
_chemical_formula_structural       NCNHCH2C3NHCNHCHC21H13C24H15C3NC3H5C3NC3H5C5H4
_chemical_formula_sum              "N6 C69 H48"
_cell_length_a       29.8015
_cell_length_b       29.8014
_cell_length_c       14.8405
_cell_angle_alpha    90
_cell_angle_beta     90
_cell_angle_gamma    120

_space_group_name_H-M_alt    "P 1"
_space_group_IT_number       1

loop_
  _space_group_symop_operation_xyz
  'x, y, z'

loop_
  _atom_site_type_symbol
  _atom_site_label
  _atom_site_symmetry_multiplicity
  _atom_site_fract_x
  _atom_site_fract_y
  _atom_site_fract_z
  _atom_site_occupancy
  N   N1        1.0  0.03583  0.52948  0.26841  1.0000
  C   C1        1.0  0.06400  0.53448  0.34357  1.0000
  N   N2        1.0  0.03715  0.51249  0.42041  1.0000
  H   H1        1.0  0.00861  0.54701  0.57914  1.0000
  C   C2        1.0  0.11930  0.56185  0.34251  1.0000
  H   H2        1.0  0.12932  0.52394  0.45573  1.0000
  H   H3        1.0  0.12873  0.60945  0.22912  1.0000
  C   C3        1.0  0.14795  0.55166  0.40737  1.0000
  C   C4        1.0  0.14761  0.60032  0.27691  1.0000
  C   C5        1.0  0.51006  0.48257  0.26799  1.0000
  N   N3        1.0  0.48396  0.50904  0.26841  1.0000
  H   H4        1.0  0.51311  0.46741  0.20804  1.0000
  C   C6        1.0  0.53087  0.03018  0.26799  1.0000
  N   N4        1.0  0.50439  0.97761  0.26841  1.0000
  H   H5        1.0  0.54601  0.04839  0.20804  1.0000
  C   C7        1.0  0.98325  0.50338  0.26799  1.0000
  H   H6        1.0  0.96504  0.50033  0.20804  1.0000
  C   C8        1.0  0.28607  0.64459  0.34055  1.0000
  C   C9        1.0  0.31400  0.61767  0.34054  1.0000
  C   C10       1.0  0.36884  0.64416  0.34055  1.0000
  C   C11       1.0  0.39576  0.69901  0.34054  1.0000
  C   C12       1.0  0.36927  0.72737  0.34055  1.0000
  C   C13       1.0  0.31442  0.69944  0.34054  1.0000
  C   C14       1.0  0.39631  0.61625  0.34109  1.0000
  C   C15       1.0  0.38556  0.57703  0.27688  1.0000
  C   C16       1.0  0.41311  0.54998  0.27691  1.0000
  C   C17       1.0  0.45159  0.56014  0.34250  1.0000
  C   C18       1.0  0.46178  0.59898  0.40736  1.0000
  C   C19       1.0  0.43515  0.62693  0.40602  1.0000
  C   C20       1.0  0.23068  0.61712  0.34109  1.0000
  C   C21       1.0  0.20253  0.57828  0.40602  1.0000
  C   C22       1.0  0.20222  0.62788  0.27688  1.0000
  C   C23       1.0  0.39719  0.78276  0.34110  1.0000
  C   C24       1.0  0.38652  0.81091  0.40605  1.0000
  C   C25       1.0  0.41445  0.86548  0.40738  1.0000
  C   C26       1.0  0.45329  0.89413  0.34251  1.0000
  C   C27       1.0  0.46345  0.86582  0.27691  1.0000
  C   C28       1.0  0.43641  0.81121  0.27690  1.0000
  H   H7        1.0  0.22163  0.56972  0.45430  1.0000
  H   H8        1.0  0.22112  0.65536  0.22823  1.0000
  H   H9        1.0  0.35882  0.79180  0.45430  1.0000
  H   H10       1.0  0.40536  0.88411  0.45575  1.0000
  H   H11       1.0  0.44497  0.79232  0.22822  1.0000
  H   H12       1.0  0.49147  0.88471  0.22913  1.0000
  H   H13       1.0  0.44371  0.65459  0.45431  1.0000
  H   H14       1.0  0.48949  0.60807  0.45574  1.0000
  H   H15       1.0  0.40399  0.52197  0.22912  1.0000
  H   H16       1.0  0.35808  0.56845  0.22823  1.0000
  H   H17       1.0  0.29400  0.57798  0.34071  1.0000
  H   H18       1.0  0.29473  0.71944  0.34072  1.0000
  H   H19       1.0  0.43545  0.71871  0.34072  1.0000
  C   C29       1.0  0.73055  0.36653  0.33811  1.0000
  C   C30       1.0  0.70185  0.39276  0.33805  1.0000
  C   C31       1.0  0.64690  0.36671  0.33812  1.0000
  C   C32       1.0  0.62067  0.31177  0.33805  1.0000
  C   C33       1.0  0.64672  0.28288  0.33811  1.0000
  C   C34       1.0  0.70166  0.31159  0.33804  1.0000
  C   C35       1.0  0.61890  0.39478  0.33932  1.0000
  C   C36       1.0  0.63851  0.44302  0.38434  1.0000
  C   C37       1.0  0.61138  0.47046  0.38536  1.0000
  C   C38       1.0  0.56214  0.45022  0.34441  1.0000
  C   C39       1.0  0.54243  0.40227  0.29887  1.0000
  C   C40       1.0  0.57030  0.37557  0.29570  1.0000
  C   C41       1.0  0.78662  0.39453  0.33931  1.0000
  C   C42       1.0  0.81601  0.44313  0.29570  1.0000
  C   C43       1.0  0.87059  0.47100  0.29885  1.0000
  C   C44       1.0  0.89883  0.45130  0.34439  1.0000
  C   C45       1.0  0.86982  0.40206  0.38534  1.0000
  C   C46       1.0  0.81525  0.37492  0.38432  1.0000
  C   C47       1.0  0.61865  0.22681  0.33931  1.0000
  C   C48       1.0  0.63786  0.19742  0.29570  1.0000
  C   C49       1.0  0.61116  0.14284  0.29887  1.0000
  C   C50       1.0  0.56321  0.11460  0.34440  1.0000
  C   C51       1.0  0.54298  0.14361  0.38536  1.0000
  C   C52       1.0  0.57042  0.19818  0.38433  1.0000
  H   H20       1.0  0.88959  0.50638  0.26785  1.0000
  H   H21       1.0  0.79803  0.45891  0.25977  1.0000
  H   H22       1.0  0.88820  0.38511  0.41644  1.0000
  H   H23       1.0  0.79670  0.34057  0.41849  1.0000
  H   H24       1.0  0.67162  0.21540  0.25977  1.0000
  H   H25       1.0  0.62753  0.12384  0.26784  1.0000
  H   H26       1.0  0.55462  0.21673  0.41852  1.0000
  H   H27       1.0  0.50765  0.12523  0.41647  1.0000
  H   H28       1.0  0.55453  0.34181  0.25977  1.0000
  H   H29       1.0  0.50705  0.38590  0.26785  1.0000
  H   H30       1.0  0.62832  0.50578  0.41646  1.0000
  H   H31       1.0  0.67286  0.45881  0.41851  1.0000
  H   H32       1.0  0.72169  0.43231  0.33826  1.0000
  H   H33       1.0  0.72136  0.29174  0.33826  1.0000
  H   H34       1.0  0.58113  0.29207  0.33826  1.0000
  C   C53       1.0  0.52706  0.50084  0.42605  1.0000
  C   C54       1.0  0.53370  0.47746  0.34721  1.0000
  C   C55       1.0  0.47896  0.53222  0.34357  1.0000
  N   N5        1.0  0.50094  0.52735  0.42041  1.0000
  C   C56       1.0  0.54640  0.49857  0.51691  1.0000
  C   C57       1.0  0.50717  0.47907  0.59523  1.0000
  C   C58       1.0  0.52909  0.44553  0.56069  1.0000
  H   H35       1.0  0.58471  0.52985  0.53648  1.0000
  H   H36       1.0  0.55739  0.44355  0.60463  1.0000
  H   H37       1.0  0.50169  0.41108  0.52307  1.0000
  H   H38       1.0  0.46641  0.46430  0.57913  1.0000
  H   H39       1.0  0.52193  0.49698  0.66089  1.0000
  C   C59       1.0  0.51260  0.02891  0.42606  1.0000
  C   C60       1.0  0.53597  0.05893  0.34721  1.0000
  C   C61       1.0  0.48122  0.94943  0.34357  1.0000
  N   N6        1.0  0.48609  0.97629  0.42042  1.0000
  C   C62       1.0  0.51486  0.05052  0.51691  1.0000
  C   C63       1.0  0.53437  0.03080  0.59524  1.0000
  C   C64       1.0  0.56790  0.08626  0.56069  1.0000
  H   H40       1.0  0.48358  0.05755  0.53648  1.0000
  H   H41       1.0  0.56987  0.11654  0.60463  1.0000
  H   H42       1.0  0.60235  0.09332  0.52308  1.0000
  H   H43       1.0  0.54915  0.00482  0.57914  1.0000
  H   H44       1.0  0.51646  0.02765  0.66089  1.0000
  C   C65       1.0  0.98452  0.48638  0.42604  1.0000
  C   C66       1.0  0.95450  0.47973  0.34720  1.0000
  C   C67       1.0  0.96291  0.46702  0.51690  1.0000
  C   C68       1.0  0.98263  0.50624  0.59523  1.0000
  C   C69       1.0  0.92717  0.48431  0.56069  1.0000
  H   H45       1.0  0.95589  0.42871  0.53646  1.0000
  H   H46       1.0  0.89689  0.45600  0.60462  1.0000
  H   H47       1.0  0.92011  0.51171  0.52309  1.0000
  H   H48       1.0  0.98578  0.49148  0.66088  1.0000
