data_image0
_chemical_formula_structural       NCH2NCH2NCH2NC18H12NC18H12C2NC2ONHC2NC2ONHC2NC2ONHNCH2NCH2NCH2NC18H12NC18H12C2NC2ONHC2NC2ONHC2NC2ONHNCH2NCH2NCH2NC18H12NC18H12C2NC2ONHC2NC2ONHC2NC2ONHNCH2NCH2NCH2NC18H12NC18H12C2NC2ONHC2NC2ONHC2NC2ONH
_chemical_formula_sum              "N44 C204 H132 O12"
_cell_length_a       50.0008
_cell_length_b       50.0008
_cell_length_c       14.5334
_cell_angle_alpha    90
_cell_angle_beta     90
_cell_angle_gamma    120

_space_group_name_H-M_alt    "P 1"
_space_group_IT_number       1

loop_
  _space_group_symop_operation_xyz
  'x, y, z'

loop_
  _atom_site_type_symbol
  _atom_site_label
  _atom_site_symmetry_multiplicity
  _atom_site_fract_x
  _atom_site_fract_y
  _atom_site_fract_z
  _atom_site_occupancy
  N   N1        1.0  0.28336  0.25797  0.28863  1.0000
  C   C1        1.0  0.26798  0.27387  0.27900  1.0000
  H   H1        1.0  0.26456  0.27939  0.21419  1.0000
  H   H2        1.0  0.28580  0.26010  0.01071  1.0000
  N   N2        1.0  0.28216  0.03343  0.28863  1.0000
  C   C2        1.0  0.26626  0.50215  0.27901  1.0000
  H   H3        1.0  0.26070  0.49320  0.21420  1.0000
  H   H4        1.0  0.28021  0.03357  0.01083  1.0000
  N   N3        1.0  0.50669  0.25676  0.28864  1.0000
  C   C3        1.0  0.03798  0.27215  0.27902  1.0000
  H   H5        1.0  0.04692  0.27557  0.21419  1.0000
  H   H6        1.0  0.50640  0.25436  0.01072  1.0000
  N   N4        1.0  0.19074  0.34939  0.36071  1.0000
  C   C4        1.0  0.20745  0.33300  0.35951  1.0000
  C   C5        1.0  0.20713  0.38249  0.35951  1.0000
  C   C6        1.0  0.15764  0.33268  0.35951  1.0000
  C   C7        1.0  0.14045  0.31636  0.43767  1.0000
  C   C8        1.0  0.10780  0.30002  0.43663  1.0000
  C   C9        1.0  0.09063  0.29881  0.35719  1.0000
  C   C10       1.0  0.10829  0.31538  0.27913  1.0000
  C   C11       1.0  0.14094  0.33197  0.28029  1.0000
  C   C12       1.0  0.22376  0.33213  0.43768  1.0000
  C   C13       1.0  0.24010  0.31581  0.43663  1.0000
  C   C14       1.0  0.24132  0.29986  0.35718  1.0000
  C   C15       1.0  0.22475  0.30095  0.27913  1.0000
  C   C16       1.0  0.20816  0.31702  0.28028  1.0000
  C   C17       1.0  0.22312  0.39919  0.28030  1.0000
  C   C18       1.0  0.23918  0.43184  0.27914  1.0000
  C   C19       1.0  0.24027  0.44950  0.35720  1.0000
  C   C20       1.0  0.22430  0.43233  0.43662  1.0000
  C   C21       1.0  0.20799  0.39967  0.43768  1.0000
  H   H7        1.0  0.25157  0.31608  0.49523  1.0000
  H   H8        1.0  0.22365  0.34335  0.49641  1.0000
  H   H9        1.0  0.19650  0.31705  0.22251  1.0000
  H   H10       1.0  0.22392  0.28941  0.22025  1.0000
  H   H11       1.0  0.15178  0.31647  0.49641  1.0000
  H   H12       1.0  0.09660  0.28856  0.49523  1.0000
  H   H13       1.0  0.22309  0.38749  0.22253  1.0000
  H   H14       1.0  0.25074  0.44255  0.22028  1.0000
  H   H15       1.0  0.22403  0.44353  0.49522  1.0000
  H   H16       1.0  0.19676  0.38834  0.49639  1.0000
  H   H17       1.0  0.15264  0.34363  0.22252  1.0000
  H   H18       1.0  0.09757  0.31622  0.22026  1.0000
  N   N5        1.0  0.35740  0.18272  0.35681  1.0000
  C   C22       1.0  0.34130  0.19984  0.35923  1.0000
  C   C23       1.0  0.34028  0.14949  0.35923  1.0000
  C   C24       1.0  0.39063  0.19883  0.35923  1.0000
  C   C25       1.0  0.40849  0.22057  0.29079  1.0000
  C   C26       1.0  0.44113  0.23713  0.29495  1.0000
  C   C27       1.0  0.45761  0.23257  0.36710  1.0000
  C   C28       1.0  0.43943  0.20957  0.43286  1.0000
  C   C29       1.0  0.40680  0.19363  0.43030  1.0000
  C   C30       1.0  0.31955  0.19595  0.29080  1.0000
  C   C31       1.0  0.30299  0.21203  0.29497  1.0000
  C   C32       1.0  0.30756  0.23309  0.36708  1.0000
  C   C33       1.0  0.33056  0.23790  0.43285  1.0000
  C   C34       1.0  0.34650  0.22121  0.43029  1.0000
  C   C35       1.0  0.31893  0.13332  0.43031  1.0000
  C   C36       1.0  0.30224  0.10069  0.43286  1.0000
  C   C37       1.0  0.30705  0.08251  0.36708  1.0000
  C   C38       1.0  0.32810  0.09899  0.29495  1.0000
  C   C39       1.0  0.34418  0.13163  0.29078  1.0000
  H   H19       1.0  0.28697  0.20773  0.24483  1.0000
  H   H20       1.0  0.31519  0.18077  0.23806  1.0000
  H   H21       1.0  0.36242  0.22508  0.48031  1.0000
  H   H22       1.0  0.33616  0.25389  0.48389  1.0000
  H   H23       1.0  0.39766  0.22492  0.23805  1.0000
  H   H24       1.0  0.45286  0.25316  0.24484  1.0000
  H   H25       1.0  0.31505  0.14537  0.48031  1.0000
  H   H26       1.0  0.28625  0.09030  0.48390  1.0000
  H   H27       1.0  0.33240  0.08727  0.24481  1.0000
  H   H28       1.0  0.35935  0.14247  0.23804  1.0000
  H   H29       1.0  0.39475  0.17770  0.48030  1.0000
  H   H30       1.0  0.44982  0.20397  0.48390  1.0000
  C   C40       1.0  0.29033  0.24931  0.37020  1.0000
  C   C41       1.0  0.25807  0.28312  0.35788  1.0000
  N   N6        1.0  0.26504  0.27437  0.43908  1.0000
  C   C42       1.0  0.28031  0.25831  0.45048  1.0000
  C   C43       1.0  0.28217  0.24951  0.54190  1.0000
  O   O1        1.0  0.27710  0.22068  0.55799  1.0000
  N   N7        1.0  0.28493  0.26718  0.61579  1.0000
  H   H31       1.0  0.28888  0.28821  0.60863  1.0000
  C   C44       1.0  0.29083  0.04904  0.37020  1.0000
  C   C45       1.0  0.25699  0.48299  0.35789  1.0000
  N   N8        1.0  0.26575  0.49871  0.43908  1.0000
  C   C46       1.0  0.28180  0.03004  0.45050  1.0000
  C   C47       1.0  0.29068  0.04067  0.54189  1.0000
  O   O2        1.0  0.31949  0.06448  0.55795  1.0000
  N   N9        1.0  0.27298  0.02586  0.61581  1.0000
  H   H32       1.0  0.25207  0.00853  0.60884  1.0000
  C   C48       1.0  0.49108  0.24980  0.37021  1.0000
  C   C49       1.0  0.05714  0.28206  0.35789  1.0000
  N   N10       1.0  0.04142  0.27509  0.43908  1.0000
  C   C50       1.0  0.51009  0.25982  0.45050  1.0000
  C   C51       1.0  0.49944  0.25798  0.54192  1.0000
  O   O3        1.0  0.47567  0.26303  0.55798  1.0000
  N   N11       1.0  0.51435  0.25522  0.61581  1.0000
  H   H33       1.0  0.53144  0.25129  0.60866  1.0000
  N   N12       1.0  0.28336  0.75797  0.28863  1.0000
  C   C52       1.0  0.26798  0.77387  0.27900  1.0000
  H   H34       1.0  0.26456  0.77939  0.21419  1.0000
  H   H35       1.0  0.28580  0.76010  0.01071  1.0000
  N   N13       1.0  0.28216  0.53343  0.28863  1.0000
  C   C53       1.0  0.26627  0.00215  0.27901  1.0000
  H   H36       1.0  0.26070  0.99320  0.21420  1.0000
  H   H37       1.0  0.28021  0.53357  0.01083  1.0000
  N   N14       1.0  0.50669  0.75676  0.28864  1.0000
  C   C54       1.0  0.03798  0.77215  0.27902  1.0000
  H   H38       1.0  0.04692  0.77557  0.21419  1.0000
  H   H39       1.0  0.50640  0.75436  0.01072  1.0000
  N   N15       1.0  0.19074  0.84939  0.36071  1.0000
  C   C55       1.0  0.20745  0.83300  0.35951  1.0000
  C   C56       1.0  0.20713  0.88249  0.35951  1.0000
  C   C57       1.0  0.15764  0.83268  0.35951  1.0000
  C   C58       1.0  0.14046  0.81636  0.43767  1.0000
  C   C59       1.0  0.10780  0.80002  0.43663  1.0000
  C   C60       1.0  0.09063  0.79881  0.35719  1.0000
  C   C61       1.0  0.10829  0.81538  0.27913  1.0000
  C   C62       1.0  0.14094  0.83197  0.28029  1.0000
  C   C63       1.0  0.22376  0.83213  0.43768  1.0000
  C   C64       1.0  0.24010  0.81581  0.43663  1.0000
  C   C65       1.0  0.24132  0.79986  0.35718  1.0000
  C   C66       1.0  0.22475  0.80095  0.27913  1.0000
  C   C67       1.0  0.20816  0.81702  0.28028  1.0000
  C   C68       1.0  0.22312  0.89919  0.28030  1.0000
  C   C69       1.0  0.23918  0.93184  0.27914  1.0000
  C   C70       1.0  0.24027  0.94950  0.35720  1.0000
  C   C71       1.0  0.22430  0.93233  0.43662  1.0000
  C   C72       1.0  0.20799  0.89967  0.43768  1.0000
  H   H40       1.0  0.25157  0.81608  0.49523  1.0000
  H   H41       1.0  0.22365  0.84335  0.49641  1.0000
  H   H42       1.0  0.19650  0.81705  0.22251  1.0000
  H   H43       1.0  0.22392  0.78941  0.22025  1.0000
  H   H44       1.0  0.15178  0.81647  0.49641  1.0000
  H   H45       1.0  0.09660  0.78856  0.49523  1.0000
  H   H46       1.0  0.22309  0.88749  0.22253  1.0000
  H   H47       1.0  0.25074  0.94255  0.22028  1.0000
  H   H48       1.0  0.22403  0.94352  0.49522  1.0000
  H   H49       1.0  0.19676  0.88834  0.49639  1.0000
  H   H50       1.0  0.15264  0.84363  0.22252  1.0000
  H   H51       1.0  0.09757  0.81622  0.22026  1.0000
  N   N16       1.0  0.35740  0.68272  0.35681  1.0000
  C   C73       1.0  0.34130  0.69984  0.35923  1.0000
  C   C74       1.0  0.34028  0.64949  0.35923  1.0000
  C   C75       1.0  0.39063  0.69883  0.35923  1.0000
  C   C76       1.0  0.40849  0.72057  0.29079  1.0000
  C   C77       1.0  0.44113  0.73713  0.29495  1.0000
  C   C78       1.0  0.45761  0.73257  0.36710  1.0000
  C   C79       1.0  0.43943  0.70957  0.43286  1.0000
  C   C80       1.0  0.40680  0.69363  0.43030  1.0000
  C   C81       1.0  0.31955  0.69595  0.29080  1.0000
  C   C82       1.0  0.30299  0.71203  0.29497  1.0000
  C   C83       1.0  0.30756  0.73309  0.36708  1.0000
  C   C84       1.0  0.33056  0.73790  0.43285  1.0000
  C   C85       1.0  0.34650  0.72121  0.43029  1.0000
  C   C86       1.0  0.31893  0.63332  0.43031  1.0000
  C   C87       1.0  0.30224  0.60069  0.43286  1.0000
  C   C88       1.0  0.30705  0.58251  0.36708  1.0000
  C   C89       1.0  0.32810  0.59899  0.29495  1.0000
  C   C90       1.0  0.34418  0.63163  0.29078  1.0000
  H   H52       1.0  0.28696  0.70773  0.24483  1.0000
  H   H53       1.0  0.31520  0.68077  0.23806  1.0000
  H   H54       1.0  0.36242  0.72508  0.48031  1.0000
  H   H55       1.0  0.33616  0.75389  0.48389  1.0000
  H   H56       1.0  0.39766  0.72492  0.23805  1.0000
  H   H57       1.0  0.45286  0.75316  0.24484  1.0000
  H   H58       1.0  0.31505  0.64537  0.48031  1.0000
  H   H59       1.0  0.28625  0.59030  0.48390  1.0000
  H   H60       1.0  0.33240  0.58727  0.24481  1.0000
  H   H61       1.0  0.35935  0.64247  0.23804  1.0000
  H   H62       1.0  0.39475  0.67770  0.48030  1.0000
  H   H63       1.0  0.44982  0.70397  0.48390  1.0000
  C   C91       1.0  0.29033  0.74931  0.37020  1.0000
  C   C92       1.0  0.25807  0.78312  0.35788  1.0000
  N   N17       1.0  0.26504  0.77437  0.43908  1.0000
  C   C93       1.0  0.28031  0.75831  0.45048  1.0000
  C   C94       1.0  0.28217  0.74951  0.54190  1.0000
  O   O4        1.0  0.27710  0.72068  0.55799  1.0000
  N   N18       1.0  0.28493  0.76718  0.61579  1.0000
  H   H64       1.0  0.28888  0.78821  0.60863  1.0000
  C   C95       1.0  0.29083  0.54905  0.37020  1.0000
  C   C96       1.0  0.25699  0.98299  0.35789  1.0000
  N   N19       1.0  0.26575  0.99871  0.43908  1.0000
  C   C97       1.0  0.28180  0.53004  0.45050  1.0000
  C   C98       1.0  0.29068  0.54067  0.54189  1.0000
  O   O5        1.0  0.31949  0.56448  0.55795  1.0000
  N   N20       1.0  0.27298  0.52586  0.61581  1.0000
  H   H65       1.0  0.25207  0.50853  0.60884  1.0000
  C   C99       1.0  0.49108  0.74981  0.37021  1.0000
  C   C100      1.0  0.05714  0.78206  0.35789  1.0000
  N   N21       1.0  0.04142  0.77509  0.43908  1.0000
  C   C101      1.0  0.51009  0.75982  0.45050  1.0000
  C   C102      1.0  0.49944  0.75797  0.54192  1.0000
  O   O6        1.0  0.47567  0.76304  0.55798  1.0000
  N   N22       1.0  0.51434  0.75522  0.61581  1.0000
  H   H66       1.0  0.53144  0.75129  0.60866  1.0000
  N   N23       1.0  0.78336  0.25797  0.28863  1.0000
  C   C103      1.0  0.76798  0.27387  0.27900  1.0000
  H   H67       1.0  0.76456  0.27939  0.21419  1.0000
  H   H68       1.0  0.78580  0.26010  0.01071  1.0000
  N   N24       1.0  0.78216  0.03343  0.28863  1.0000
  C   C104      1.0  0.76627  0.50215  0.27901  1.0000
  H   H69       1.0  0.76070  0.49320  0.21420  1.0000
  H   H70       1.0  0.78021  0.03357  0.01083  1.0000
  N   N25       1.0  0.00669  0.25676  0.28864  1.0000
  C   C105      1.0  0.53797  0.27215  0.27902  1.0000
  H   H71       1.0  0.54692  0.27557  0.21419  1.0000
  H   H72       1.0  0.00640  0.25436  0.01072  1.0000
  N   N26       1.0  0.69074  0.34939  0.36071  1.0000
  C   C106      1.0  0.70745  0.33300  0.35951  1.0000
  C   C107      1.0  0.70713  0.38249  0.35951  1.0000
  C   C108      1.0  0.65764  0.33268  0.35951  1.0000
  C   C109      1.0  0.64045  0.31636  0.43767  1.0000
  C   C110      1.0  0.60780  0.30002  0.43663  1.0000
  C   C111      1.0  0.59063  0.29881  0.35719  1.0000
  C   C112      1.0  0.60829  0.31538  0.27913  1.0000
  C   C113      1.0  0.64094  0.33197  0.28029  1.0000
  C   C114      1.0  0.72376  0.33213  0.43768  1.0000
  C   C115      1.0  0.74010  0.31581  0.43663  1.0000
  C   C116      1.0  0.74132  0.29986  0.35718  1.0000
  C   C117      1.0  0.72475  0.30095  0.27913  1.0000
  C   C118      1.0  0.70816  0.31702  0.28028  1.0000
  C   C119      1.0  0.72312  0.39919  0.28030  1.0000
  C   C120      1.0  0.73918  0.43184  0.27914  1.0000
  C   C121      1.0  0.74027  0.44950  0.35720  1.0000
  C   C122      1.0  0.72430  0.43233  0.43662  1.0000
  C   C123      1.0  0.70799  0.39967  0.43768  1.0000
  H   H73       1.0  0.75157  0.31608  0.49523  1.0000
  H   H74       1.0  0.72365  0.34335  0.49641  1.0000
  H   H75       1.0  0.69650  0.31705  0.22251  1.0000
  H   H76       1.0  0.72392  0.28941  0.22025  1.0000
  H   H77       1.0  0.65178  0.31647  0.49641  1.0000
  H   H78       1.0  0.59660  0.28856  0.49523  1.0000
  H   H79       1.0  0.72310  0.38749  0.22253  1.0000
  H   H80       1.0  0.75074  0.44255  0.22028  1.0000
  H   H81       1.0  0.72403  0.44353  0.49522  1.0000
  H   H82       1.0  0.69676  0.38834  0.49639  1.0000
  H   H83       1.0  0.65264  0.34363  0.22252  1.0000
  H   H84       1.0  0.59757  0.31622  0.22026  1.0000
  N   N27       1.0  0.85740  0.18272  0.35681  1.0000
  C   C124      1.0  0.84130  0.19984  0.35923  1.0000
  C   C125      1.0  0.84028  0.14949  0.35923  1.0000
  C   C126      1.0  0.89063  0.19883  0.35923  1.0000
  C   C127      1.0  0.90849  0.22057  0.29079  1.0000
  C   C128      1.0  0.94113  0.23713  0.29495  1.0000
  C   C129      1.0  0.95761  0.23257  0.36710  1.0000
  C   C130      1.0  0.93943  0.20957  0.43286  1.0000
  C   C131      1.0  0.90680  0.19363  0.43030  1.0000
  C   C132      1.0  0.81955  0.19595  0.29080  1.0000
  C   C133      1.0  0.80299  0.21203  0.29497  1.0000
  C   C134      1.0  0.80756  0.23309  0.36708  1.0000
  C   C135      1.0  0.83056  0.23790  0.43285  1.0000
  C   C136      1.0  0.84650  0.22121  0.43029  1.0000
  C   C137      1.0  0.81893  0.13332  0.43031  1.0000
  C   C138      1.0  0.80224  0.10069  0.43286  1.0000
  C   C139      1.0  0.80705  0.08251  0.36708  1.0000
  C   C140      1.0  0.82810  0.09899  0.29495  1.0000
  C   C141      1.0  0.84418  0.13163  0.29078  1.0000
  H   H85       1.0  0.78697  0.20773  0.24483  1.0000
  H   H86       1.0  0.81519  0.18077  0.23806  1.0000
  H   H87       1.0  0.86242  0.22508  0.48031  1.0000
  H   H88       1.0  0.83616  0.25389  0.48389  1.0000
  H   H89       1.0  0.89766  0.22492  0.23805  1.0000
  H   H90       1.0  0.95286  0.25316  0.24484  1.0000
  H   H91       1.0  0.81505  0.14537  0.48031  1.0000
  H   H92       1.0  0.78625  0.09030  0.48390  1.0000
  H   H93       1.0  0.83240  0.08727  0.24481  1.0000
  H   H94       1.0  0.85935  0.14247  0.23804  1.0000
  H   H95       1.0  0.89475  0.17770  0.48030  1.0000
  H   H96       1.0  0.94982  0.20397  0.48390  1.0000
  C   C142      1.0  0.79033  0.24931  0.37020  1.0000
  C   C143      1.0  0.75807  0.28312  0.35788  1.0000
  N   N28       1.0  0.76504  0.27437  0.43908  1.0000
  C   C144      1.0  0.78031  0.25831  0.45048  1.0000
  C   C145      1.0  0.78217  0.24951  0.54190  1.0000
  O   O7        1.0  0.77710  0.22068  0.55799  1.0000
  N   N29       1.0  0.78493  0.26718  0.61579  1.0000
  H   H97       1.0  0.78888  0.28821  0.60863  1.0000
  C   C146      1.0  0.79083  0.04904  0.37020  1.0000
  C   C147      1.0  0.75699  0.48299  0.35789  1.0000
  N   N30       1.0  0.76575  0.49871  0.43908  1.0000
  C   C148      1.0  0.78180  0.03004  0.45050  1.0000
  C   C149      1.0  0.79068  0.04067  0.54189  1.0000
  O   O8        1.0  0.81949  0.06448  0.55795  1.0000
  N   N31       1.0  0.77298  0.02586  0.61581  1.0000
  H   H98       1.0  0.75207  0.00853  0.60884  1.0000
  C   C150      1.0  0.99108  0.24980  0.37021  1.0000
  C   C151      1.0  0.55714  0.28206  0.35789  1.0000
  N   N32       1.0  0.54142  0.27509  0.43908  1.0000
  C   C152      1.0  0.01009  0.25982  0.45050  1.0000
  C   C153      1.0  0.99943  0.25798  0.54192  1.0000
  O   O9        1.0  0.97567  0.26303  0.55798  1.0000
  N   N33       1.0  0.01435  0.25522  0.61581  1.0000
  H   H99       1.0  0.03144  0.25129  0.60866  1.0000
  N   N34       1.0  0.78336  0.75797  0.28863  1.0000
  C   C154      1.0  0.76798  0.77387  0.27900  1.0000
  H   H100      1.0  0.76456  0.77939  0.21419  1.0000
  H   H101      1.0  0.78580  0.76010  0.01071  1.0000
  N   N35       1.0  0.78216  0.53343  0.28863  1.0000
  C   C155      1.0  0.76627  0.00215  0.27901  1.0000
  H   H102      1.0  0.76070  0.99320  0.21420  1.0000
  H   H103      1.0  0.78021  0.53357  0.01083  1.0000
  N   N36       1.0  0.00670  0.75676  0.28864  1.0000
  C   C156      1.0  0.53798  0.77215  0.27902  1.0000
  H   H104      1.0  0.54692  0.77557  0.21419  1.0000
  H   H105      1.0  0.00640  0.75436  0.01072  1.0000
  N   N37       1.0  0.69074  0.84939  0.36071  1.0000
  C   C157      1.0  0.70745  0.83300  0.35951  1.0000
  C   C158      1.0  0.70713  0.88249  0.35951  1.0000
  C   C159      1.0  0.65764  0.83268  0.35951  1.0000
  C   C160      1.0  0.64046  0.81636  0.43767  1.0000
  C   C161      1.0  0.60780  0.80002  0.43663  1.0000
  C   C162      1.0  0.59063  0.79881  0.35719  1.0000
  C   C163      1.0  0.60829  0.81538  0.27913  1.0000
  C   C164      1.0  0.64094  0.83197  0.28029  1.0000
  C   C165      1.0  0.72376  0.83213  0.43768  1.0000
  C   C166      1.0  0.74010  0.81581  0.43663  1.0000
  C   C167      1.0  0.74132  0.79986  0.35718  1.0000
  C   C168      1.0  0.72475  0.80095  0.27913  1.0000
  C   C169      1.0  0.70816  0.81702  0.28028  1.0000
  C   C170      1.0  0.72312  0.89919  0.28030  1.0000
  C   C171      1.0  0.73918  0.93184  0.27914  1.0000
  C   C172      1.0  0.74027  0.94950  0.35720  1.0000
  C   C173      1.0  0.72430  0.93233  0.43662  1.0000
  C   C174      1.0  0.70799  0.89967  0.43768  1.0000
  H   H106      1.0  0.75157  0.81608  0.49523  1.0000
  H   H107      1.0  0.72365  0.84335  0.49641  1.0000
  H   H108      1.0  0.69650  0.81705  0.22251  1.0000
  H   H109      1.0  0.72392  0.78941  0.22025  1.0000
  H   H110      1.0  0.65178  0.81647  0.49641  1.0000
  H   H111      1.0  0.59660  0.78856  0.49523  1.0000
  H   H112      1.0  0.72310  0.88749  0.22253  1.0000
  H   H113      1.0  0.75074  0.94255  0.22028  1.0000
  H   H114      1.0  0.72403  0.94352  0.49522  1.0000
  H   H115      1.0  0.69676  0.88834  0.49639  1.0000
  H   H116      1.0  0.65264  0.84363  0.22252  1.0000
  H   H117      1.0  0.59757  0.81622  0.22026  1.0000
  N   N38       1.0  0.85740  0.68272  0.35681  1.0000
  C   C175      1.0  0.84130  0.69984  0.35923  1.0000
  C   C176      1.0  0.84028  0.64949  0.35923  1.0000
  C   C177      1.0  0.89063  0.69883  0.35923  1.0000
  C   C178      1.0  0.90849  0.72057  0.29079  1.0000
  C   C179      1.0  0.94113  0.73713  0.29495  1.0000
  C   C180      1.0  0.95761  0.73257  0.36710  1.0000
  C   C181      1.0  0.93943  0.70957  0.43286  1.0000
  C   C182      1.0  0.90680  0.69363  0.43030  1.0000
  C   C183      1.0  0.81955  0.69595  0.29080  1.0000
  C   C184      1.0  0.80299  0.71203  0.29497  1.0000
  C   C185      1.0  0.80757  0.73309  0.36708  1.0000
  C   C186      1.0  0.83056  0.73790  0.43285  1.0000
  C   C187      1.0  0.84650  0.72121  0.43029  1.0000
  C   C188      1.0  0.81893  0.63332  0.43031  1.0000
  C   C189      1.0  0.80224  0.60069  0.43286  1.0000
  C   C190      1.0  0.80705  0.58251  0.36708  1.0000
  C   C191      1.0  0.82810  0.59899  0.29495  1.0000
  C   C192      1.0  0.84418  0.63163  0.29078  1.0000
  H   H118      1.0  0.78697  0.70773  0.24483  1.0000
  H   H119      1.0  0.81520  0.68077  0.23806  1.0000
  H   H120      1.0  0.86242  0.72508  0.48031  1.0000
  H   H121      1.0  0.83617  0.75389  0.48389  1.0000
  H   H122      1.0  0.89766  0.72492  0.23805  1.0000
  H   H123      1.0  0.95286  0.75316  0.24484  1.0000
  H   H124      1.0  0.81505  0.64537  0.48031  1.0000
  H   H125      1.0  0.78625  0.59030  0.48390  1.0000
  H   H126      1.0  0.83240  0.58727  0.24481  1.0000
  H   H127      1.0  0.85935  0.64247  0.23804  1.0000
  H   H128      1.0  0.89475  0.67770  0.48030  1.0000
  H   H129      1.0  0.94982  0.70397  0.48390  1.0000
  C   C193      1.0  0.79033  0.74931  0.37020  1.0000
  C   C194      1.0  0.75807  0.78312  0.35788  1.0000
  N   N39       1.0  0.76504  0.77437  0.43908  1.0000
  C   C195      1.0  0.78031  0.75831  0.45048  1.0000
  C   C196      1.0  0.78217  0.74951  0.54190  1.0000
  O   O10       1.0  0.77710  0.72068  0.55799  1.0000
  N   N40       1.0  0.78493  0.76718  0.61579  1.0000
  H   H130      1.0  0.78888  0.78821  0.60863  1.0000
  C   C197      1.0  0.79083  0.54905  0.37020  1.0000
  C   C198      1.0  0.75699  0.98299  0.35789  1.0000
  N   N41       1.0  0.76575  0.99871  0.43908  1.0000
  C   C199      1.0  0.78180  0.53004  0.45050  1.0000
  C   C200      1.0  0.79068  0.54067  0.54189  1.0000
  O   O11       1.0  0.81949  0.56448  0.55795  1.0000
  N   N42       1.0  0.77298  0.52586  0.61581  1.0000
  H   H131      1.0  0.75207  0.50853  0.60884  1.0000
  C   C201      1.0  0.99108  0.74981  0.37021  1.0000
  C   C202      1.0  0.55714  0.78206  0.35789  1.0000
  N   N43       1.0  0.54142  0.77509  0.43908  1.0000
  C   C203      1.0  0.01009  0.75982  0.45050  1.0000
  C   C204      1.0  0.99944  0.75797  0.54192  1.0000
  O   O12       1.0  0.97567  0.76304  0.55798  1.0000
  N   N44       1.0  0.01435  0.75522  0.61581  1.0000
  H   H132      1.0  0.03144  0.75129  0.60866  1.0000
