data_image0
_chemical_formula_structural       C2HC3H2C2H2C2H2CHC4HC4HNO2CHCHC2HC2HC2HC2HC2HC2HC2HCHC2H2C2H2CHC2H2C2H2C2H2C2H2C2H2C2H2C4H2C4H2C4H2C4H2C4H2C2NO2C8H3NO2C2HC8H3NO2C8H3NO2C8H3NO2
_chemical_formula_sum              "C108 H60 N6 O12"
_cell_length_a       31.8901
_cell_length_b       31.8902
_cell_length_c       14.7077
_cell_angle_alpha    90
_cell_angle_beta     90
_cell_angle_gamma    120

_space_group_name_H-M_alt    "P 1"
_space_group_IT_number       1

loop_
  _space_group_symop_operation_xyz
  'x, y, z'

loop_
  _atom_site_type_symbol
  _atom_site_label
  _atom_site_symmetry_multiplicity
  _atom_site_fract_x
  _atom_site_fract_y
  _atom_site_fract_z
  _atom_site_occupancy
  C   C1        1.0  0.06885  0.57511  0.36694  1.0000
  C   C2        1.0  0.12007  0.60189  0.36517  1.0000
  H   H1        1.0  0.05185  0.59456  0.37735  1.0000
  C   C3        1.0  0.04159  0.52353  0.35751  1.0000
  C   C4        1.0  0.12125  0.52599  0.34614  1.0000
  C   C5        1.0  0.06995  0.50036  0.34734  1.0000
  H   H2        1.0  0.05366  0.46390  0.33759  1.0000
  H   H3        1.0  0.13436  0.47225  0.47070  1.0000
  C   C6        1.0  0.18359  0.51619  0.26651  1.0000
  C   C7        1.0  0.22236  0.50697  0.27098  1.0000
  H   H4        1.0  0.18200  0.53564  0.21251  1.0000
  H   H5        1.0  0.24745  0.52043  0.21986  1.0000
  C   C8        1.0  0.19827  0.72787  0.28349  1.0000
  C   C9        1.0  0.15864  0.68034  0.28909  1.0000
  H   H6        1.0  0.20574  0.74495  0.22181  1.0000
  H   H7        1.0  0.14001  0.66409  0.23078  1.0000
  C   C10       1.0  0.14549  0.57670  0.35487  1.0000
  H   H8        1.0  0.18267  0.59580  0.35428  1.0000
  C   C11       1.0  0.23003  0.48522  0.34859  1.0000
  C   C12       1.0  0.19517  0.47063  0.41925  1.0000
  C   C13       1.0  0.15619  0.47975  0.41491  1.0000
  C   C14       1.0  0.15034  0.50360  0.33913  1.0000
  H   H9        1.0  0.19922  0.45526  0.47720  1.0000
  C   C15       1.0  0.14822  0.65348  0.37059  1.0000
  C   C16       1.0  0.17738  0.67616  0.44813  1.0000
  C   C17       1.0  0.21698  0.72417  0.44139  1.0000
  C   C18       1.0  0.22949  0.75040  0.35850  1.0000
  H   H10       1.0  0.23928  0.73829  0.49654  1.0000
  N   N1        1.0  0.16763  0.64926  0.52977  1.0000
  O   O1        1.0  0.20267  0.64408  0.55315  1.0000
  O   O2        1.0  0.15797  0.66924  0.59359  1.0000
  C   C19       1.0  0.29700  0.47538  0.28362  1.0000
  H   H11       1.0  0.27991  0.46573  0.22194  1.0000
  C   C20       1.0  0.30450  0.80250  0.27086  1.0000
  H   H12       1.0  0.29290  0.77743  0.21969  1.0000
  C   C21       1.0  0.30068  0.49776  0.44154  1.0000
  C   C22       1.0  0.27448  0.48409  0.35862  1.0000
  H   H13       1.0  0.28655  0.50593  0.49670  1.0000
  C   C23       1.0  0.27510  0.79482  0.34846  1.0000
  C   C24       1.0  0.29532  0.82971  0.41906  1.0000
  H   H14       1.0  0.27595  0.82562  0.47708  1.0000
  C   C25       1.0  0.90976  0.41797  0.36502  1.0000
  C   C26       1.0  0.96099  0.44475  0.36685  1.0000
  H   H15       1.0  0.97799  0.42529  0.37726  1.0000
  C   C27       1.0  0.60689  0.49678  0.36529  1.0000
  C   C28       1.0  0.58010  0.52121  0.36707  1.0000
  H   H16       1.0  0.59952  0.55765  0.37759  1.0000
  C   C29       1.0  0.44973  0.49865  0.36706  1.0000
  C   C30       1.0  0.42294  0.52309  0.36522  1.0000
  H   H17       1.0  0.43031  0.46221  0.37760  1.0000
  C   C31       1.0  0.52807  0.11509  0.36518  1.0000
  C   C32       1.0  0.50363  0.06387  0.36708  1.0000
  H   H18       1.0  0.46719  0.04685  0.37754  1.0000
  C   C33       1.0  0.52616  0.95603  0.36697  1.0000
  C   C34       1.0  0.50171  0.90481  0.36510  1.0000
  H   H19       1.0  0.56261  0.97304  0.37738  1.0000
  C   C35       1.0  0.34454  0.48332  0.28923  1.0000
  H   H20       1.0  0.36077  0.48082  0.23098  1.0000
  C   C36       1.0  0.54952  0.82658  0.28346  1.0000
  C   C37       1.0  0.54156  0.86617  0.28908  1.0000
  H   H21       1.0  0.55922  0.81918  0.22180  1.0000
  H   H22       1.0  0.54409  0.88491  0.23083  1.0000
  C   C38       1.0  0.50866  0.67233  0.26629  1.0000
  C   C39       1.0  0.51783  0.72031  0.27084  1.0000
  H   H23       1.0  0.48926  0.65133  0.21223  1.0000
  H   H24       1.0  0.50453  0.73202  0.21954  1.0000
  C   C40       1.0  0.35248  0.84130  0.26638  1.0000
  H   H25       1.0  0.37355  0.84287  0.21245  1.0000
  C   C41       1.0  0.73282  0.54447  0.28365  1.0000
  C   C42       1.0  0.68530  0.53660  0.28930  1.0000
  H   H26       1.0  0.74989  0.55408  0.22196  1.0000
  H   H27       1.0  0.66904  0.53897  0.23098  1.0000
  C   C43       1.0  0.84629  0.50376  0.26644  1.0000
  C   C44       1.0  0.80746  0.51289  0.27103  1.0000
  H   H28       1.0  0.84776  0.48417  0.21257  1.0000
  H   H29       1.0  0.78237  0.49941  0.21990  1.0000
  C   C45       1.0  0.48041  0.19335  0.28350  1.0000
  C   C46       1.0  0.48835  0.15376  0.28918  1.0000
  H   H30       1.0  0.47080  0.20080  0.22179  1.0000
  H   H31       1.0  0.48589  0.13504  0.23093  1.0000
  C   C47       1.0  0.52128  0.34759  0.26643  1.0000
  C   C48       1.0  0.51203  0.29958  0.27089  1.0000
  H   H32       1.0  0.54078  0.36864  0.21248  1.0000
  H   H33       1.0  0.52554  0.28796  0.21982  1.0000
  C   C49       1.0  0.83155  0.29194  0.28337  1.0000
  C   C50       1.0  0.87114  0.33949  0.28894  1.0000
  H   H34       1.0  0.82414  0.27482  0.22173  1.0000
  H   H35       1.0  0.88988  0.35569  0.23069  1.0000
  C   C51       1.0  0.67728  0.17857  0.26625  1.0000
  C   C52       1.0  0.72526  0.21737  0.27079  1.0000
  H   H36       1.0  0.65626  0.17696  0.21222  1.0000
  H   H37       1.0  0.73696  0.24237  0.21948  1.0000
  C   C53       1.0  0.98825  0.49634  0.35747  1.0000
  C   C54       1.0  0.95991  0.51951  0.34729  1.0000
  C   C55       1.0  0.90861  0.49390  0.34605  1.0000
  C   C56       1.0  0.88435  0.44319  0.35475  1.0000
  H   H38       1.0  0.97620  0.55598  0.33760  1.0000
  H   H39       1.0  0.84717  0.42409  0.35412  1.0000
  C   C57       1.0  0.52852  0.49686  0.35752  1.0000
  C   C58       1.0  0.50536  0.44535  0.34726  1.0000
  C   C59       1.0  0.53100  0.41969  0.34604  1.0000
  C   C60       1.0  0.58171  0.44616  0.35490  1.0000
  H   H40       1.0  0.46891  0.42519  0.33738  1.0000
  H   H41       1.0  0.60082  0.42810  0.35433  1.0000
  C   C61       1.0  0.50131  0.52299  0.35751  1.0000
  C   C62       1.0  0.44813  0.57370  0.35482  1.0000
  C   C63       1.0  0.49883  0.60017  0.34599  1.0000
  C   C64       1.0  0.52447  0.57450  0.34718  1.0000
  H   H42       1.0  0.42902  0.59177  0.35421  1.0000
  H   H43       1.0  0.56092  0.59467  0.33737  1.0000
  C   C65       1.0  0.52797  0.03662  0.35750  1.0000
  C   C66       1.0  0.57949  0.06498  0.34725  1.0000
  C   C67       1.0  0.60515  0.11628  0.34608  1.0000
  C   C68       1.0  0.57868  0.14052  0.35486  1.0000
  H   H44       1.0  0.59964  0.04869  0.33736  1.0000
  H   H45       1.0  0.59675  0.17769  0.35424  1.0000
  C   C69       1.0  0.50182  0.98328  0.35748  1.0000
  C   C70       1.0  0.45109  0.87939  0.35480  1.0000
  C   C71       1.0  0.42462  0.90363  0.34605  1.0000
  C   C72       1.0  0.45031  0.95493  0.34721  1.0000
  H   H46       1.0  0.43301  0.84221  0.35417  1.0000
  H   H47       1.0  0.43015  0.97123  0.33745  1.0000
  C   C73       1.0  0.37136  0.49965  0.37080  1.0000
  C   C74       1.0  0.34867  0.50613  0.44832  1.0000
  N   N2        1.0  0.37558  0.52325  0.52995  1.0000
  O   O3        1.0  0.38079  0.56349  0.55333  1.0000
  O   O4        1.0  0.35557  0.49362  0.59378  1.0000
  C   C75       1.0  0.52512  0.87666  0.37054  1.0000
  C   C76       1.0  0.51864  0.84744  0.44802  1.0000
  C   C77       1.0  0.52701  0.80782  0.44128  1.0000
  C   C78       1.0  0.54079  0.79534  0.35842  1.0000
  C   C79       1.0  0.53960  0.74974  0.34839  1.0000
  C   C80       1.0  0.55416  0.72944  0.41907  1.0000
  C   C81       1.0  0.54502  0.68133  0.41468  1.0000
  C   C82       1.0  0.52121  0.65162  0.33887  1.0000
  H   H48       1.0  0.56943  0.74880  0.47711  1.0000
  H   H49       1.0  0.55239  0.66699  0.47060  1.0000
  H   H50       1.0  0.51884  0.78554  0.49647  1.0000
  N   N3        1.0  0.50150  0.85719  0.52967  1.0000
  O   O5        1.0  0.46126  0.82216  0.55303  1.0000
  O   O6        1.0  0.53113  0.86682  0.59350  1.0000
  C   C83       1.0  0.34340  0.86873  0.41467  1.0000
  C   C84       1.0  0.37316  0.87457  0.33897  1.0000
  H   H51       1.0  0.35776  0.89043  0.47059  1.0000
  C   C85       1.0  0.65847  0.52022  0.37086  1.0000
  C   C86       1.0  0.68117  0.51374  0.44836  1.0000
  C   C87       1.0  0.72917  0.52213  0.44158  1.0000
  C   C88       1.0  0.75538  0.53582  0.35866  1.0000
  C   C89       1.0  0.79981  0.53466  0.34861  1.0000
  C   C90       1.0  0.83469  0.54925  0.41923  1.0000
  C   C91       1.0  0.87373  0.54023  0.41476  1.0000
  C   C92       1.0  0.87955  0.51630  0.33905  1.0000
  H   H52       1.0  0.83065  0.56461  0.47720  1.0000
  H   H53       1.0  0.89544  0.54757  0.47066  1.0000
  H   H54       1.0  0.74331  0.51397  0.49675  1.0000
  N   N4        1.0  0.65428  0.49661  0.53001  1.0000
  O   O7        1.0  0.64908  0.45638  0.55339  1.0000
  O   O8        1.0  0.67428  0.52625  0.59382  1.0000
  C   C93       1.0  0.50463  0.14322  0.37080  1.0000
  C   C94       1.0  0.51105  0.17240  0.44827  1.0000
  C   C95       1.0  0.50269  0.21202  0.44147  1.0000
  C   C96       1.0  0.48906  0.22456  0.35851  1.0000
  C   C97       1.0  0.49021  0.27015  0.34844  1.0000
  C   C98       1.0  0.47556  0.29040  0.41904  1.0000
  C   C99       1.0  0.48469  0.33850  0.41470  1.0000
  C   C100      1.0  0.50863  0.36822  0.33898  1.0000
  H   H55       1.0  0.46013  0.27096  0.47695  1.0000
  H   H56       1.0  0.47715  0.35282  0.47045  1.0000
  H   H57       1.0  0.51082  0.23431  0.49664  1.0000
  N   N5        1.0  0.52815  0.16262  0.52994  1.0000
  O   O9        1.0  0.56837  0.19765  0.55338  1.0000
  O   O10       1.0  0.49848  0.15298  0.59372  1.0000
  C   C101      1.0  0.88160  0.36640  0.37039  1.0000
  C   C102      1.0  0.85241  0.34372  0.44792  1.0000
  C   C103      1.0  0.81278  0.29572  0.44118  1.0000
  C   C104      1.0  0.80030  0.26944  0.35834  1.0000
  C   C105      1.0  0.75470  0.22503  0.34834  1.0000
  C   C106      1.0  0.73442  0.19019  0.41904  1.0000
  C   C107      1.0  0.68631  0.15121  0.41472  1.0000
  C   C108      1.0  0.65662  0.14537  0.33892  1.0000
  H   H58       1.0  0.75379  0.19428  0.47707  1.0000
  H   H59       1.0  0.67196  0.12950  0.47064  1.0000
  H   H60       1.0  0.79051  0.28162  0.49639  1.0000
  N   N6        1.0  0.86217  0.37061  0.52957  1.0000
  O   O11       1.0  0.82714  0.37582  0.55293  1.0000
  O   O12       1.0  0.87180  0.35062  0.59340  1.0000
