data_image0
_chemical_formula_structural       C3HCH3C3HCH3C3HCH3C3HCH3C3HCH3C3HCH3C3HCH3C3HCH3C3HCH3NC18H12NC18H12NC18H12NC18H12NC18H12NC18H12C3HCH3C3HCH3C3HCH3C3HCH3C3HCH3C3HCH3C3HCH3C3HCH3C3HCH3
_chemical_formula_sum              "C180 H144 N6"
_cell_length_a       52.5274
_cell_length_b       52.5274
_cell_length_c       14.8593
_cell_angle_alpha    90
_cell_angle_beta     90
_cell_angle_gamma    120

_space_group_name_H-M_alt    "P 1"
_space_group_IT_number       1

loop_
  _space_group_symop_operation_xyz
  'x, y, z'

loop_
  _atom_site_type_symbol
  _atom_site_label
  _atom_site_symmetry_multiplicity
  _atom_site_fract_x
  _atom_site_fract_y
  _atom_site_fract_z
  _atom_site_occupancy
  C   C1        1.0  0.02158  0.49692  0.28489  1.0000
  C   C2        1.0  0.99038  0.48131  0.28312  1.0000
  C   C3        1.0  0.97435  0.48882  0.34521  1.0000
  H   H1        1.0  0.03281  0.49126  0.24040  1.0000
  C   C4        1.0  0.97531  0.45683  0.21702  1.0000
  H   H2        1.0  0.99057  0.45232  0.17985  1.0000
  H   H3        1.0  0.96335  0.46222  0.16778  1.0000
  H   H4        1.0  0.95988  0.43665  0.25197  1.0000
  C   C5        1.0  0.51489  0.52700  0.28483  1.0000
  C   C6        1.0  0.53050  0.51140  0.28308  1.0000
  C   C7        1.0  0.52302  0.48790  0.34527  1.0000
  H   H5        1.0  0.52053  0.54386  0.24028  1.0000
  C   C8        1.0  0.55495  0.52078  0.21687  1.0000
  H   H6        1.0  0.55944  0.54053  0.17963  1.0000
  H   H7        1.0  0.54953  0.50341  0.16770  1.0000
  H   H8        1.0  0.57514  0.52554  0.25173  1.0000
  C   C9        1.0  0.48481  0.99023  0.28488  1.0000
  C   C10       1.0  0.50041  0.02144  0.28312  1.0000
  C   C11       1.0  0.52392  0.03747  0.34529  1.0000
  H   H9        1.0  0.46795  0.97901  0.24033  1.0000
  C   C12       1.0  0.49103  0.03651  0.21691  1.0000
  H   H10       1.0  0.47127  0.02125  0.17968  1.0000
  H   H11       1.0  0.50839  0.04846  0.16773  1.0000
  H   H12       1.0  0.48627  0.05194  0.25178  1.0000
  C   C13       1.0  0.25409  0.55201  0.36410  1.0000
  C   C14       1.0  0.28861  0.54257  0.27375  1.0000
  C   C15       1.0  0.26263  0.54427  0.28275  1.0000
  H   H13       1.0  0.24991  0.54022  0.22667  1.0000
  C   C16       1.0  0.29312  0.53199  0.18519  1.0000
  H   H14       1.0  0.31145  0.52781  0.18495  1.0000
  H   H15       1.0  0.29702  0.54823  0.13318  1.0000
  H   H16       1.0  0.27351  0.51130  0.16728  1.0000
  C   C17       1.0  0.45990  0.70449  0.36413  1.0000
  C   C18       1.0  0.46933  0.74845  0.27381  1.0000
  C   C19       1.0  0.46763  0.72077  0.28279  1.0000
  H   H17       1.0  0.47168  0.71212  0.22669  1.0000
  C   C20       1.0  0.47991  0.76355  0.18526  1.0000
  H   H18       1.0  0.48408  0.78605  0.18503  1.0000
  H   H19       1.0  0.46367  0.75122  0.13324  1.0000
  H   H20       1.0  0.50060  0.76463  0.16734  1.0000
  C   C21       1.0  0.30735  0.75777  0.36410  1.0000
  C   C22       1.0  0.26340  0.72324  0.27371  1.0000
  C   C23       1.0  0.29108  0.74922  0.28273  1.0000
  H   H21       1.0  0.29975  0.76193  0.22663  1.0000
  C   C24       1.0  0.24833  0.71872  0.18512  1.0000
  H   H22       1.0  0.22583  0.70039  0.18485  1.0000
  H   H23       1.0  0.26067  0.71482  0.13314  1.0000
  H   H24       1.0  0.24725  0.73833  0.16715  1.0000
  C   C25       1.0  0.76387  0.46651  0.33500  1.0000
  C   C26       1.0  0.71906  0.45620  0.24879  1.0000
  C   C27       1.0  0.74679  0.45801  0.25527  1.0000
  H   H25       1.0  0.75399  0.45157  0.20055  1.0000
  C   C28       1.0  0.70415  0.44754  0.15939  1.0000
  H   H26       1.0  0.68420  0.44899  0.15586  1.0000
  H   H27       1.0  0.69842  0.42497  0.14388  1.0000
  H   H28       1.0  0.71894  0.46202  0.10717  1.0000
  C   C29       1.0  0.54534  0.29971  0.33483  1.0000
  C   C30       1.0  0.55566  0.26521  0.24862  1.0000
  C   C31       1.0  0.55385  0.29113  0.25511  1.0000
  H   H29       1.0  0.56030  0.30477  0.20040  1.0000
  C   C32       1.0  0.56434  0.25897  0.15924  1.0000
  H   H30       1.0  0.56289  0.23756  0.15573  1.0000
  H   H31       1.0  0.58691  0.27581  0.14378  1.0000
  H   H32       1.0  0.54987  0.25927  0.10700  1.0000
  C   C33       1.0  0.71208  0.24799  0.33491  1.0000
  C   C34       1.0  0.74663  0.29277  0.24867  1.0000
  C   C35       1.0  0.72070  0.26505  0.25515  1.0000
  H   H33       1.0  0.70709  0.25785  0.20039  1.0000
  C   C36       1.0  0.75292  0.30766  0.15921  1.0000
  H   H34       1.0  0.77434  0.32760  0.15569  1.0000
  H   H35       1.0  0.73610  0.31340  0.14357  1.0000
  H   H36       1.0  0.75262  0.29285  0.10708  1.0000
  N   N1        1.0  0.16439  0.58280  0.34674  1.0000
  C   C37       1.0  0.18106  0.61381  0.33049  1.0000
  C   C38       1.0  0.13302  0.56698  0.34695  1.0000
  C   C39       1.0  0.18116  0.56881  0.36652  1.0000
  C   C40       1.0  0.20278  0.58017  0.43465  1.0000
  C   C41       1.0  0.22609  0.57419  0.43460  1.0000
  C   C42       1.0  0.22810  0.55516  0.37037  1.0000
  C   C43       1.0  0.20420  0.54136  0.30888  1.0000
  C   C44       1.0  0.18166  0.54853  0.30542  1.0000
  C   C45       1.0  0.17922  0.63376  0.39017  1.0000
  C   C46       1.0  0.20100  0.66377  0.39062  1.0000
  C   C47       1.0  0.22633  0.67440  0.33559  1.0000
  C   C48       1.0  0.22729  0.65463  0.27276  1.0000
  C   C49       1.0  0.20453  0.62513  0.26800  1.0000
  C   C50       1.0  0.11708  0.55625  0.42791  1.0000
  C   C51       1.0  0.08603  0.54090  0.42816  1.0000
  C   C52       1.0  0.06967  0.53529  0.34739  1.0000
  C   C53       1.0  0.08593  0.54602  0.26641  1.0000
  C   C54       1.0  0.11698  0.56172  0.26622  1.0000
  H   H37       1.0  0.19936  0.67734  0.43667  1.0000
  H   H38       1.0  0.16298  0.62616  0.43773  1.0000
  H   H39       1.0  0.20714  0.61113  0.22621  1.0000
  H   H40       1.0  0.24539  0.66116  0.23282  1.0000
  H   H41       1.0  0.20392  0.59602  0.47722  1.0000
  H   H42       1.0  0.24283  0.58607  0.47858  1.0000
  H   H43       1.0  0.12812  0.55977  0.48745  1.0000
  H   H44       1.0  0.07539  0.53332  0.48830  1.0000
  H   H45       1.0  0.07522  0.54299  0.20641  1.0000
  H   H46       1.0  0.12794  0.56928  0.20658  1.0000
  H   H47       1.0  0.16671  0.54041  0.25404  1.0000
  H   H48       1.0  0.20352  0.52686  0.26190  1.0000
  N   N2        1.0  0.42905  0.58397  0.34677  1.0000
  C   C55       1.0  0.39804  0.56963  0.33053  1.0000
  C   C56       1.0  0.44487  0.56841  0.34698  1.0000
  C   C57       1.0  0.44305  0.61474  0.36641  1.0000
  C   C58       1.0  0.43165  0.62499  0.43442  1.0000
  C   C59       1.0  0.43772  0.65431  0.43464  1.0000
  C   C60       1.0  0.45673  0.67535  0.37039  1.0000
  C   C61       1.0  0.47049  0.66522  0.30878  1.0000
  C   C62       1.0  0.46334  0.63552  0.30536  1.0000
  C   C63       1.0  0.37809  0.54785  0.39025  1.0000
  C   C64       1.0  0.34809  0.53969  0.39083  1.0000
  C   C65       1.0  0.33745  0.55434  0.33565  1.0000
  C   C66       1.0  0.35722  0.57504  0.27275  1.0000
  C   C67       1.0  0.38671  0.58177  0.26800  1.0000
  C   C68       1.0  0.45563  0.56323  0.42792  1.0000
  C   C69       1.0  0.47098  0.54753  0.42818  1.0000
  C   C70       1.0  0.47656  0.53675  0.34742  1.0000
  C   C71       1.0  0.46580  0.54225  0.26645  1.0000
  C   C72       1.0  0.45010  0.55760  0.26626  1.0000
  H   H49       1.0  0.33450  0.52443  0.43674  1.0000
  H   H50       1.0  0.38569  0.53921  0.43781  1.0000
  H   H51       1.0  0.40072  0.59836  0.22615  1.0000
  H   H52       1.0  0.35069  0.58659  0.23275  1.0000
  H   H53       1.0  0.41592  0.61030  0.47732  1.0000
  H   H54       1.0  0.42588  0.65918  0.47878  1.0000
  H   H55       1.0  0.45212  0.57077  0.48745  1.0000
  H   H56       1.0  0.47858  0.54450  0.48831  1.0000
  H   H57       1.0  0.46880  0.53454  0.20648  1.0000
  H   H58       1.0  0.44251  0.56098  0.20664  1.0000
  H   H59       1.0  0.47143  0.62870  0.25387  1.0000
  H   H60       1.0  0.48498  0.67904  0.26177  1.0000
  N   N3        1.0  0.42786  0.84742  0.34686  1.0000
  C   C73       1.0  0.44221  0.83076  0.33064  1.0000
  C   C74       1.0  0.44341  0.87880  0.34706  1.0000
  C   C75       1.0  0.39708  0.83065  0.36644  1.0000
  C   C76       1.0  0.38684  0.80902  0.43450  1.0000
  C   C77       1.0  0.35753  0.78575  0.43459  1.0000
  C   C78       1.0  0.33649  0.78375  0.37038  1.0000
  C   C79       1.0  0.34662  0.80763  0.30880  1.0000
  C   C80       1.0  0.37633  0.83018  0.30534  1.0000
  C   C81       1.0  0.46399  0.83262  0.39038  1.0000
  C   C82       1.0  0.47218  0.81080  0.39093  1.0000
  C   C83       1.0  0.45754  0.78551  0.33572  1.0000
  C   C84       1.0  0.43684  0.78457  0.27281  1.0000
  C   C85       1.0  0.43008  0.80732  0.26805  1.0000
  C   C86       1.0  0.44858  0.89474  0.42798  1.0000
  C   C87       1.0  0.46428  0.92579  0.42824  1.0000
  C   C88       1.0  0.47507  0.94215  0.34747  1.0000
  C   C89       1.0  0.46957  0.92589  0.26651  1.0000
  C   C90       1.0  0.45422  0.89484  0.26634  1.0000
  H   H61       1.0  0.48744  0.81247  0.43684  1.0000
  H   H62       1.0  0.47262  0.84886  0.43794  1.0000
  H   H63       1.0  0.41349  0.80473  0.22620  1.0000
  H   H64       1.0  0.42529  0.76648  0.23279  1.0000
  H   H65       1.0  0.40152  0.80798  0.47745  1.0000
  H   H66       1.0  0.35263  0.76907  0.47888  1.0000
  H   H67       1.0  0.44103  0.88370  0.48751  1.0000
  H   H68       1.0  0.46730  0.93643  0.48835  1.0000
  H   H69       1.0  0.47729  0.93659  0.20654  1.0000
  H   H70       1.0  0.45086  0.88387  0.20672  1.0000
  H   H71       1.0  0.38316  0.84509  0.25385  1.0000
  H   H72       1.0  0.33282  0.80831  0.26173  1.0000
  N   N4        1.0  0.84782  0.43005  0.33538  1.0000
  C   C91       1.0  0.82763  0.39844  0.32999  1.0000
  C   C92       1.0  0.87933  0.44398  0.33755  1.0000
  C   C93       1.0  0.83578  0.44915  0.34366  1.0000
  C   C94       1.0  0.82093  0.44863  0.42348  1.0000
  C   C95       1.0  0.79848  0.45596  0.42186  1.0000
  C   C96       1.0  0.79069  0.46510  0.34147  1.0000
  C   C97       1.0  0.80841  0.46895  0.26477  1.0000
  C   C98       1.0  0.82988  0.46036  0.26501  1.0000
  C   C99       1.0  0.83704  0.37739  0.33411  1.0000
  C   C100      1.0  0.81689  0.34677  0.33283  1.0000
  C   C101      1.0  0.78626  0.33584  0.32761  1.0000
  C   C102      1.0  0.77659  0.35645  0.32179  1.0000
  C   C103      1.0  0.79675  0.38674  0.32127  1.0000
  C   C104      1.0  0.89433  0.44089  0.41206  1.0000
  C   C105      1.0  0.92537  0.45495  0.41396  1.0000
  C   C106      1.0  0.94265  0.47359  0.34289  1.0000
  C   C107      1.0  0.92759  0.47712  0.26931  1.0000
  C   C108      1.0  0.89661  0.46217  0.26598  1.0000
  H   H73       1.0  0.82473  0.33246  0.33573  1.0000
  H   H74       1.0  0.85891  0.38416  0.33852  1.0000
  H   H75       1.0  0.78804  0.40017  0.31495  1.0000
  H   H76       1.0  0.75462  0.34954  0.31701  1.0000
  H   H77       1.0  0.82325  0.43875  0.47975  1.0000
  H   H78       1.0  0.78591  0.45153  0.47849  1.0000
  H   H79       1.0  0.88257  0.42808  0.46535  1.0000
  H   H80       1.0  0.93537  0.45193  0.46874  1.0000
  H   H81       1.0  0.93916  0.49069  0.21704  1.0000
  H   H82       1.0  0.88671  0.46503  0.21086  1.0000
  H   H83       1.0  0.83875  0.45931  0.20488  1.0000
  H   H84       1.0  0.80418  0.47562  0.20480  1.0000
  N   N5        1.0  0.58179  0.42014  0.33545  1.0000
  C   C109      1.0  0.61340  0.43155  0.33012  1.0000
  C   C110      1.0  0.56786  0.43771  0.33761  1.0000
  C   C111      1.0  0.56270  0.38900  0.34370  1.0000
  C   C112      1.0  0.56313  0.37460  0.42349  1.0000
  C   C113      1.0  0.55581  0.34484  0.42181  1.0000
  C   C114      1.0  0.54676  0.32794  0.34134  1.0000
  C   C115      1.0  0.54299  0.34186  0.26462  1.0000
  C   C116      1.0  0.55155  0.37191  0.26496  1.0000
  C   C117      1.0  0.63445  0.46202  0.33394  1.0000
  C   C118      1.0  0.66507  0.47249  0.33267  1.0000
  C   C119      1.0  0.67601  0.45279  0.32771  1.0000
  C   C120      1.0  0.65540  0.42251  0.32221  1.0000
  C   C121      1.0  0.62511  0.41237  0.32171  1.0000
  C   C122      1.0  0.57099  0.45583  0.41207  1.0000
  C   C123      1.0  0.55692  0.47280  0.41398  1.0000
  C   C124      1.0  0.53825  0.47142  0.34296  1.0000
  C   C125      1.0  0.53468  0.45279  0.26945  1.0000
  C   C126      1.0  0.54963  0.43677  0.26610  1.0000
  H   H85       1.0  0.67938  0.49465  0.33535  1.0000
  H   H86       1.0  0.62768  0.47712  0.33813  1.0000
  H   H87       1.0  0.61169  0.39022  0.31562  1.0000
  H   H88       1.0  0.66232  0.40745  0.31764  1.0000
  H   H89       1.0  0.57296  0.38679  0.47985  1.0000
  H   H90       1.0  0.56018  0.33667  0.47850  1.0000
  H   H91       1.0  0.58382  0.45691  0.46530  1.0000
  H   H92       1.0  0.55998  0.48587  0.46868  1.0000
  H   H93       1.0  0.52109  0.45077  0.21722  1.0000
  H   H94       1.0  0.54674  0.42398  0.21104  1.0000
  H   H95       1.0  0.55264  0.38184  0.20484  1.0000
  H   H96       1.0  0.53633  0.33097  0.20460  1.0000
  N   N6        1.0  0.59169  0.16400  0.33544  1.0000
  C   C127      1.0  0.58029  0.18420  0.33007  1.0000
  C   C128      1.0  0.57411  0.13249  0.33761  1.0000
  C   C129      1.0  0.62283  0.17603  0.34366  1.0000
  C   C130      1.0  0.63718  0.19083  0.42354  1.0000
  C   C131      1.0  0.66694  0.21332  0.42182  1.0000
  C   C132      1.0  0.68384  0.22117  0.34138  1.0000
  C   C133      1.0  0.66995  0.20348  0.26465  1.0000
  C   C134      1.0  0.63993  0.18194  0.26495  1.0000
  C   C135      1.0  0.54982  0.17478  0.33387  1.0000
  C   C136      1.0  0.53935  0.19493  0.33255  1.0000
  C   C137      1.0  0.55905  0.22556  0.32762  1.0000
  C   C138      1.0  0.58933  0.23524  0.32215  1.0000
  C   C139      1.0  0.59947  0.21508  0.32166  1.0000
  C   C140      1.0  0.55599  0.11749  0.41207  1.0000
  C   C141      1.0  0.53902  0.08646  0.41399  1.0000
  C   C142      1.0  0.54039  0.06917  0.34297  1.0000
  C   C143      1.0  0.55902  0.08422  0.26944  1.0000
  C   C144      1.0  0.57505  0.11520  0.26608  1.0000
  H   H97       1.0  0.51719  0.18708  0.33520  1.0000
  H   H98       1.0  0.53471  0.15291  0.33804  1.0000
  H   H99       1.0  0.62162  0.22381  0.31558  1.0000
  H   H100      1.0  0.60440  0.25722  0.31756  1.0000
  H   H101      1.0  0.62493  0.18850  0.47970  1.0000
  H   H102      1.0  0.67508  0.22589  0.47847  1.0000
  H   H103      1.0  0.55492  0.12926  0.46530  1.0000
  H   H104      1.0  0.52596  0.07646  0.46870  1.0000
  H   H105      1.0  0.56103  0.07265  0.21722  1.0000
  H   H106      1.0  0.58783  0.12510  0.21101  1.0000
  H   H107      1.0  0.62997  0.17310  0.20485  1.0000
  H   H108      1.0  0.68087  0.20768  0.20470  1.0000
  C   C145      1.0  0.03794  0.51955  0.34749  1.0000
  C   C146      1.0  0.99055  0.51173  0.40899  1.0000
  C   C147      1.0  0.02173  0.52617  0.40968  1.0000
  H   H109      1.0  0.03306  0.54287  0.45475  1.0000
  C   C148      1.0  0.97687  0.52260  0.47541  1.0000
  H   H110      1.0  0.95319  0.51272  0.46802  1.0000
  H   H111      1.0  0.98628  0.54631  0.46786  1.0000
  H   H112      1.0  0.98135  0.51807  0.54354  1.0000
  C   C149      1.0  0.49230  0.52077  0.34753  1.0000
  C   C150      1.0  0.50015  0.48122  0.40914  1.0000
  C   C151      1.0  0.48571  0.49797  0.40982  1.0000
  H   H113      1.0  0.46903  0.49261  0.45496  1.0000
  C   C152      1.0  0.48931  0.45672  0.47569  1.0000
  H   H114      1.0  0.49918  0.44290  0.46831  1.0000
  H   H115      1.0  0.46559  0.44241  0.46827  1.0000
  H   H116      1.0  0.49388  0.46575  0.54377  1.0000
  C   C153      1.0  0.49105  0.97388  0.34757  1.0000
  C   C154      1.0  0.53060  0.02127  0.40916  1.0000
  C   C155      1.0  0.51385  0.99008  0.40986  1.0000
  H   H117      1.0  0.51921  0.97876  0.45499  1.0000
  C   C156      1.0  0.55510  0.03494  0.47570  1.0000
  H   H118      1.0  0.56892  0.05863  0.46831  1.0000
  H   H119      1.0  0.56941  0.02553  0.46827  1.0000
  H   H120      1.0  0.54607  0.03047  0.54379  1.0000
  C   C157      1.0  0.27355  0.55824  0.43749  1.0000
  C   C158      1.0  0.30087  0.55906  0.43032  1.0000
  C   C159      1.0  0.30863  0.55080  0.34751  1.0000
  H   H121      1.0  0.26806  0.56299  0.49861  1.0000
  C   C160      1.0  0.32114  0.57031  0.50941  1.0000
  H   H122      1.0  0.31338  0.57919  0.56239  1.0000
  H   H123      1.0  0.34272  0.58799  0.48851  1.0000
  H   H124      1.0  0.32344  0.55263  0.53927  1.0000
  C   C161      1.0  0.45366  0.71772  0.43754  1.0000
  C   C162      1.0  0.45284  0.74421  0.43038  1.0000
  C   C163      1.0  0.46110  0.76025  0.34757  1.0000
  H   H125      1.0  0.44893  0.70748  0.49866  1.0000
  C   C164      1.0  0.44158  0.75322  0.50948  1.0000
  H   H126      1.0  0.43271  0.73658  0.56246  1.0000
  H   H127      1.0  0.42390  0.75712  0.48859  1.0000
  H   H128      1.0  0.45926  0.77321  0.53935  1.0000
  C   C165      1.0  0.29410  0.73831  0.43750  1.0000
  C   C166      1.0  0.26761  0.71099  0.43030  1.0000
  C   C167      1.0  0.25160  0.70322  0.34747  1.0000
  H   H129      1.0  0.30433  0.74381  0.49863  1.0000
  C   C168      1.0  0.25858  0.69072  0.50941  1.0000
  H   H130      1.0  0.27521  0.69849  0.56242  1.0000
  H   H131      1.0  0.25468  0.66914  0.48854  1.0000
  H   H132      1.0  0.23859  0.68842  0.53922  1.0000
  C   C169      1.0  0.75189  0.47383  0.40927  1.0000
  C   C170      1.0  0.72359  0.47106  0.40740  1.0000
  C   C171      1.0  0.70670  0.46188  0.32647  1.0000
  H   H133      1.0  0.76371  0.48046  0.46775  1.0000
  C   C172      1.0  0.71173  0.47647  0.49195  1.0000
  H   H134      1.0  0.72696  0.48255  0.54853  1.0000
  H   H135      1.0  0.69143  0.45668  0.51120  1.0000
  H   H136      1.0  0.70716  0.49435  0.48160  1.0000
  C   C173      1.0  0.53799  0.28038  0.40908  1.0000
  C   C174      1.0  0.54076  0.25486  0.40723  1.0000
  C   C175      1.0  0.54998  0.24718  0.32631  1.0000
  H   H137      1.0  0.53134  0.28557  0.46754  1.0000
  C   C176      1.0  0.53533  0.23758  0.49177  1.0000
  H   H138      1.0  0.52923  0.24672  0.54832  1.0000
  H   H139      1.0  0.55511  0.23706  0.51107  1.0000
  H   H140      1.0  0.51745  0.21513  0.48138  1.0000
  C   C177      1.0  0.73138  0.25998  0.40922  1.0000
  C   C178      1.0  0.75691  0.28827  0.40735  1.0000
  C   C179      1.0  0.76464  0.30515  0.32639  1.0000
  H   H141      1.0  0.72617  0.24817  0.46771  1.0000
  C   C180      1.0  0.77415  0.30014  0.49195  1.0000
  H   H142      1.0  0.76497  0.28493  0.54855  1.0000
  H   H143      1.0  0.77467  0.32046  0.51109  1.0000
  H   H144      1.0  0.79660  0.30469  0.48171  1.0000
