data_image0
_chemical_formula_structural       C8HC7HCH4N3C8HC7HCH4N4C6H4CHC6H4CHC6H4CHC6H4CHC6H4CHC6H4CHC8HC7HCH4N5C4H2C2H2CHC4H2C2H2CHC4H2C2H2CHC4H2C2H2CHC4H2C2H2CHC4H2C2H2CH
_chemical_formula_sum              "C132 H78 N12"
_cell_length_a       38.3996
_cell_length_b       38.3996
_cell_length_c       14.961
_cell_angle_alpha    90.0002
_cell_angle_beta     89.9998
_cell_angle_gamma    120

_space_group_name_H-M_alt    "P 1"
_space_group_IT_number       1

loop_
  _space_group_symop_operation_xyz
  'x, y, z'

loop_
  _atom_site_type_symbol
  _atom_site_label
  _atom_site_symmetry_multiplicity
  _atom_site_fract_x
  _atom_site_fract_y
  _atom_site_fract_z
  _atom_site_occupancy
  C   C1        1.0  0.55432  0.57853  0.33111  1.0000
  C   C2        1.0  0.59144  0.57844  0.33133  1.0000
  C   C3        1.0  0.62853  0.61534  0.32991  1.0000
  C   C4        1.0  0.62812  0.65190  0.32885  1.0000
  C   C5        1.0  0.59178  0.65253  0.32899  1.0000
  C   C6        1.0  0.55462  0.61580  0.32995  1.0000
  C   C7        1.0  0.59026  0.54104  0.33115  1.0000
  C   C8        1.0  0.51756  0.61525  0.32992  1.0000
  H   H1        1.0  0.65474  0.67861  0.32868  1.0000
  C   C9        1.0  0.51691  0.54143  0.33112  1.0000
  C   C10       1.0  0.51660  0.50416  0.32998  1.0000
  C   C11       1.0  0.47944  0.46743  0.32905  1.0000
  C   C12       1.0  0.44311  0.46806  0.32891  1.0000
  C   C13       1.0  0.44269  0.50462  0.32996  1.0000
  C   C14       1.0  0.47979  0.54153  0.33136  1.0000
  C   C15       1.0  0.55366  0.50471  0.32994  1.0000
  H   H2        1.0  0.41649  0.44135  0.32873  1.0000
  C   C16       1.0  0.48097  0.57892  0.33116  1.0000
  H   H3        1.0  0.55460  0.47856  0.32921  1.0000
  H   H4        1.0  0.61617  0.53964  0.33073  1.0000
  H   H5        1.0  0.45506  0.58033  0.33074  1.0000
  H   H6        1.0  0.51662  0.64140  0.32917  1.0000
  N   N1        1.0  0.59362  0.68793  0.32250  1.0000
  N   N2        1.0  0.40793  0.50461  0.33342  1.0000
  N   N3        1.0  0.47761  0.43203  0.32255  1.0000
  C   C17       1.0  0.51706  0.06014  0.33109  1.0000
  C   C18       1.0  0.51715  0.09735  0.33133  1.0000
  C   C19       1.0  0.48025  0.09754  0.32992  1.0000
  C   C20       1.0  0.44369  0.06057  0.32883  1.0000
  C   C21       1.0  0.44307  0.02360  0.32889  1.0000
  C   C22       1.0  0.47979  0.02317  0.32991  1.0000
  C   C23       1.0  0.55455  0.13357  0.33117  1.0000
  C   C24       1.0  0.48034  0.98666  0.32988  1.0000
  H   H7        1.0  0.41698  0.06047  0.32865  1.0000
  C   C25       1.0  0.55416  0.05982  0.33110  1.0000
  C   C26       1.0  0.59143  0.09679  0.32994  1.0000
  C   C27       1.0  0.62816  0.09636  0.32895  1.0000
  C   C28       1.0  0.62753  0.05940  0.32889  1.0000
  C   C29       1.0  0.59097  0.02242  0.32997  1.0000
  C   C30       1.0  0.55407  0.02261  0.33135  1.0000
  C   C31       1.0  0.59088  0.13330  0.32990  1.0000
  H   H8        1.0  0.65425  0.05949  0.32870  1.0000
  C   C32       1.0  0.51667  0.98639  0.33117  1.0000
  H   H9        1.0  0.61703  0.16040  0.32914  1.0000
  H   H10       1.0  0.55595  0.16088  0.33071  1.0000
  H   H11       1.0  0.51527  0.95908  0.33071  1.0000
  H   H12       1.0  0.45419  0.95957  0.32910  1.0000
  N   N4        1.0  0.40767  0.99003  0.32244  1.0000
  N   N5        1.0  0.48023  0.13228  0.33341  1.0000
  N   N6        1.0  0.59099  0.98768  0.33343  1.0000
  N   N7        1.0  0.66355  0.12994  0.32249  1.0000
  C   C33       1.0  0.18294  0.51060  0.28940  1.0000
  C   C34       1.0  0.21860  0.50934  0.27638  1.0000
  C   C35       1.0  0.27041  0.49399  0.33125  1.0000
  C   C36       1.0  0.27638  0.47777  0.25159  1.0000
  C   C37       1.0  0.31097  0.47453  0.23922  1.0000
  C   C38       1.0  0.34115  0.48773  0.30569  1.0000
  H   H13       1.0  0.25493  0.46698  0.20256  1.0000
  H   H14       1.0  0.31370  0.46205  0.18103  1.0000
  H   H15       1.0  0.17287  0.52098  0.23829  1.0000
  H   H16       1.0  0.23323  0.51900  0.21652  1.0000
  C   C39       1.0  0.37432  0.48279  0.29285  1.0000
  H   H17       1.0  0.37230  0.46234  0.24907  1.0000
  C   C40       1.0  0.58499  0.75669  0.28943  1.0000
  C   C41       1.0  0.58625  0.79361  0.27641  1.0000
  C   C42       1.0  0.60160  0.86078  0.33127  1.0000
  C   C43       1.0  0.61783  0.88296  0.25161  1.0000
  C   C44       1.0  0.62107  0.92080  0.23924  1.0000
  C   C45       1.0  0.60786  0.93777  0.30570  1.0000
  H   H18       1.0  0.62862  0.87230  0.20259  1.0000
  H   H19       1.0  0.63355  0.93601  0.18106  1.0000
  H   H20       1.0  0.57461  0.73623  0.23832  1.0000
  H   H21       1.0  0.57659  0.79858  0.21654  1.0000
  C   C46       1.0  0.61280  0.97588  0.29286  1.0000
  H   H22       1.0  0.63326  0.99431  0.24907  1.0000
  C   C47       1.0  0.33891  0.91265  0.28940  1.0000
  C   C48       1.0  0.30198  0.87699  0.27639  1.0000
  C   C49       1.0  0.23482  0.82517  0.33126  1.0000
  C   C50       1.0  0.21263  0.81921  0.25160  1.0000
  C   C51       1.0  0.17480  0.78462  0.23923  1.0000
  C   C52       1.0  0.15781  0.75445  0.30571  1.0000
  H   H23       1.0  0.22329  0.84066  0.20257  1.0000
  H   H24       1.0  0.15959  0.78189  0.18104  1.0000
  H   H25       1.0  0.35935  0.92272  0.23829  1.0000
  H   H26       1.0  0.29702  0.86236  0.21653  1.0000
  C   C53       1.0  0.11971  0.72127  0.29286  1.0000
  H   H27       1.0  0.10129  0.72329  0.24904  1.0000
  C   C54       1.0  0.88829  0.60936  0.28948  1.0000
  C   C55       1.0  0.85263  0.61062  0.27644  1.0000
  C   C56       1.0  0.80080  0.62597  0.33127  1.0000
  C   C57       1.0  0.79485  0.64219  0.25161  1.0000
  C   C58       1.0  0.76026  0.64543  0.23921  1.0000
  C   C59       1.0  0.73008  0.63224  0.30568  1.0000
  H   H28       1.0  0.81630  0.65298  0.20258  1.0000
  H   H29       1.0  0.75753  0.65791  0.18102  1.0000
  H   H30       1.0  0.89836  0.59898  0.23837  1.0000
  H   H31       1.0  0.83800  0.60096  0.21656  1.0000
  C   C60       1.0  0.69690  0.63717  0.29281  1.0000
  H   H32       1.0  0.69892  0.65760  0.24899  1.0000
  C   C61       1.0  0.48623  0.36328  0.28946  1.0000
  C   C62       1.0  0.48497  0.32635  0.27642  1.0000
  C   C63       1.0  0.46962  0.25919  0.33127  1.0000
  C   C64       1.0  0.45340  0.23701  0.25161  1.0000
  C   C65       1.0  0.45016  0.19917  0.23922  1.0000
  C   C66       1.0  0.46335  0.18219  0.30568  1.0000
  H   H33       1.0  0.44261  0.24767  0.20258  1.0000
  H   H34       1.0  0.43768  0.18397  0.18103  1.0000
  H   H35       1.0  0.49661  0.38373  0.23835  1.0000
  H   H36       1.0  0.49463  0.32139  0.21655  1.0000
  C   C67       1.0  0.45843  0.14408  0.29281  1.0000
  H   H37       1.0  0.43799  0.12567  0.24899  1.0000
  C   C68       1.0  0.73232  0.20730  0.28943  1.0000
  C   C69       1.0  0.76924  0.24297  0.27641  1.0000
  C   C70       1.0  0.83641  0.29479  0.33126  1.0000
  C   C71       1.0  0.85858  0.30075  0.25159  1.0000
  C   C72       1.0  0.89642  0.33534  0.23921  1.0000
  C   C73       1.0  0.91341  0.36552  0.30568  1.0000
  H   H38       1.0  0.84792  0.27930  0.20257  1.0000
  H   H39       1.0  0.91162  0.33807  0.18102  1.0000
  H   H40       1.0  0.71187  0.19723  0.23833  1.0000
  H   H41       1.0  0.77420  0.25760  0.21654  1.0000
  C   C74       1.0  0.95151  0.39869  0.29281  1.0000
  H   H42       1.0  0.96992  0.39668  0.24896  1.0000
  C   C75       1.0  0.03546  0.54128  0.33107  1.0000
  C   C76       1.0  0.99824  0.50416  0.33132  1.0000
  C   C77       1.0  0.99805  0.46706  0.32990  1.0000
  C   C78       1.0  0.03503  0.46748  0.32881  1.0000
  C   C79       1.0  0.07199  0.50382  0.32888  1.0000
  C   C80       1.0  0.07242  0.54097  0.32989  1.0000
  C   C81       1.0  0.96203  0.50533  0.33116  1.0000
  C   C82       1.0  0.10893  0.57803  0.32986  1.0000
  H   H43       1.0  0.03512  0.44086  0.32865  1.0000
  C   C83       1.0  0.03577  0.57869  0.33110  1.0000
  C   C84       1.0  0.99880  0.57900  0.32998  1.0000
  C   C85       1.0  0.99923  0.61615  0.32906  1.0000
  C   C86       1.0  0.03620  0.65248  0.32891  1.0000
  C   C87       1.0  0.07318  0.65291  0.32994  1.0000
  C   C88       1.0  0.07299  0.61581  0.33133  1.0000
  C   C89       1.0  0.96229  0.54193  0.32995  1.0000
  H   H44       1.0  0.03611  0.67911  0.32876  1.0000
  C   C90       1.0  0.10920  0.61463  0.33112  1.0000
  H   H45       1.0  0.93520  0.54099  0.32925  1.0000
  H   H46       1.0  0.93471  0.47943  0.33076  1.0000
  H   H47       1.0  0.13651  0.64054  0.33069  1.0000
  H   H48       1.0  0.13603  0.57898  0.32908  1.0000
  N   N8        1.0  0.10556  0.50199  0.32243  1.0000
  N   N9        1.0  0.96331  0.43230  0.33341  1.0000
  N   N10       1.0  0.10792  0.68766  0.33343  1.0000
  N   N11       1.0  0.96566  0.61798  0.32257  1.0000
  N   N12       1.0  0.66329  0.61536  0.33340  1.0000
  C   C91       1.0  0.16165  0.49821  0.37130  1.0000
  C   C92       1.0  0.23452  0.49590  0.34481  1.0000
  C   C93       1.0  0.21336  0.48377  0.42680  1.0000
  C   C94       1.0  0.17765  0.48492  0.43980  1.0000
  H   H49       1.0  0.22333  0.47315  0.47761  1.0000
  H   H50       1.0  0.16325  0.47558  0.50005  1.0000
  C   C95       1.0  0.33549  0.50439  0.38503  1.0000
  C   C96       1.0  0.30072  0.50735  0.39759  1.0000
  H   H51       1.0  0.35635  0.51399  0.43528  1.0000
  H   H52       1.0  0.29787  0.51967  0.45585  1.0000
  C   C97       1.0  0.12647  0.49943  0.38656  1.0000
  H   H53       1.0  0.11723  0.49840  0.44927  1.0000
  C   C98       1.0  0.59736  0.74778  0.37135  1.0000
  C   C99       1.0  0.59969  0.82298  0.34484  1.0000
  C   C100      1.0  0.61180  0.81393  0.42684  1.0000
  C   C101      1.0  0.61065  0.77707  0.43984  1.0000
  H   H54       1.0  0.62242  0.83452  0.47765  1.0000
  H   H55       1.0  0.61997  0.77201  0.50011  1.0000
  C   C102      1.0  0.59120  0.91545  0.38504  1.0000
  C   C103      1.0  0.58823  0.87772  0.39761  1.0000
  H   H56       1.0  0.58159  0.92670  0.43528  1.0000
  H   H57       1.0  0.57591  0.86255  0.45586  1.0000
  C   C104      1.0  0.59612  0.71138  0.38664  1.0000
  H   H58       1.0  0.59709  0.70315  0.44935  1.0000
  C   C105      1.0  0.34781  0.93394  0.37131  1.0000
  C   C106      1.0  0.27262  0.86106  0.34482  1.0000
  C   C107      1.0  0.28166  0.88222  0.42682  1.0000
  C   C108      1.0  0.31851  0.91794  0.43981  1.0000
  H   H59       1.0  0.26107  0.87225  0.47762  1.0000
  H   H60       1.0  0.32358  0.93233  0.50007  1.0000
  C   C109      1.0  0.18014  0.76010  0.38504  1.0000
  C   C110      1.0  0.21788  0.79487  0.39760  1.0000
  H   H61       1.0  0.16889  0.73924  0.43528  1.0000
  H   H62       1.0  0.23304  0.79771  0.45585  1.0000
  C   C111      1.0  0.38420  0.96912  0.38658  1.0000
  H   H63       1.0  0.39241  0.97836  0.44929  1.0000
  C   C112      1.0  0.90956  0.62173  0.37139  1.0000
  C   C113      1.0  0.83669  0.62406  0.34485  1.0000
  C   C114      1.0  0.85785  0.63617  0.42686  1.0000
  C   C115      1.0  0.89355  0.63503  0.43988  1.0000
  H   H64       1.0  0.84787  0.64679  0.47765  1.0000
  H   H65       1.0  0.90794  0.64436  0.50014  1.0000
  C   C116      1.0  0.73573  0.61557  0.38502  1.0000
  C   C117      1.0  0.77050  0.61260  0.39759  1.0000
  H   H66       1.0  0.71486  0.60595  0.43526  1.0000
  H   H67       1.0  0.77333  0.60027  0.45585  1.0000
  C   C118      1.0  0.94473  0.62050  0.38669  1.0000
  H   H68       1.0  0.95394  0.62151  0.44941  1.0000
  C   C119      1.0  0.47386  0.37218  0.37138  1.0000
  C   C120      1.0  0.47153  0.29698  0.34484  1.0000
  C   C121      1.0  0.45942  0.30602  0.42685  1.0000
  C   C122      1.0  0.46057  0.34288  0.43987  1.0000
  H   H69       1.0  0.44880  0.28543  0.47765  1.0000
  H   H70       1.0  0.45124  0.34794  0.50013  1.0000
  C   C123      1.0  0.48003  0.20451  0.38502  1.0000
  C   C124      1.0  0.48299  0.24224  0.39759  1.0000
  H   H71       1.0  0.48964  0.19326  0.43525  1.0000
  H   H72       1.0  0.49532  0.25741  0.45584  1.0000
  C   C125      1.0  0.47509  0.40858  0.38667  1.0000
  H   H73       1.0  0.47409  0.41679  0.44939  1.0000
  C   C126      1.0  0.72342  0.18602  0.37134  1.0000
  C   C127      1.0  0.79861  0.25890  0.34483  1.0000
  C   C128      1.0  0.78958  0.23774  0.42682  1.0000
  C   C129      1.0  0.75272  0.20203  0.43983  1.0000
  H   H74       1.0  0.81017  0.24772  0.47763  1.0000
  H   H75       1.0  0.74766  0.18763  0.50009  1.0000
  C   C130      1.0  0.89108  0.35986  0.38502  1.0000
  C   C131      1.0  0.85335  0.32509  0.39759  1.0000
  H   H76       1.0  0.90234  0.38073  0.43526  1.0000
  H   H77       1.0  0.83819  0.32226  0.45584  1.0000
  C   C132      1.0  0.68704  0.15084  0.38661  1.0000
  H   H78       1.0  0.67884  0.14158  0.44932  1.0000
