data_image0
_chemical_formula_structural       C11H6C6H3C6N2C11H6C6H3C6N2C2H2C3H2CHC2H2C3H2CHC2H2C3H2CHC7H6NC7H6NC7H2N2O4CHC7H2N2O4CHC7H2N2O4CH
_chemical_formula_sum              "C102 H54 N12 O12"
_cell_length_a       52.6476
_cell_length_b       52.6587
_cell_length_c       14.9314
_cell_angle_alpha    90
_cell_angle_beta     90
_cell_angle_gamma    119.985

_space_group_name_H-M_alt    "P 1"
_space_group_IT_number       1

loop_
  _space_group_symop_operation_xyz
  'x, y, z'

loop_
  _atom_site_type_symbol
  _atom_site_label
  _atom_site_symmetry_multiplicity
  _atom_site_fract_x
  _atom_site_fract_y
  _atom_site_fract_z
  _atom_site_occupancy
  C   C1        1.0  0.22224  0.61610  0.33614  1.0000
  C   C2        1.0  0.38993  0.60774  0.33400  1.0000
  C   C3        1.0  0.39795  0.78341  0.33417  1.0000
  C   C4        1.0  0.42016  0.57558  0.34108  1.0000
  C   C5        1.0  0.39173  0.56298  0.30406  1.0000
  C   C6        1.0  0.37663  0.57876  0.30092  1.0000
  C   C7        1.0  0.17614  0.61654  0.32251  1.0000
  C   C8        1.0  0.20702  0.63140  0.32000  1.0000
  C   C9        1.0  0.43013  0.84577  0.34108  1.0000
  C   C10       1.0  0.44289  0.82991  0.30535  1.0000
  C   C11       1.0  0.42708  0.79903  0.30230  1.0000
  H   H1        1.0  0.38167  0.54201  0.27962  1.0000
  H   H2        1.0  0.35594  0.56887  0.27415  1.0000
  H   H3        1.0  0.21816  0.65341  0.30603  1.0000
  H   H4        1.0  0.16556  0.62805  0.31047  1.0000
  H   H5        1.0  0.46397  0.84078  0.28180  1.0000
  H   H6        1.0  0.43708  0.78820  0.27648  1.0000
  C   C12       1.0  0.35357  0.69998  0.32962  1.0000
  C   C13       1.0  0.32262  0.68579  0.33034  1.0000
  C   C14       1.0  0.30568  0.65485  0.33062  1.0000
  C   C15       1.0  0.31987  0.63809  0.33024  1.0000
  C   C16       1.0  0.35081  0.65208  0.32952  1.0000
  C   C17       1.0  0.36757  0.68303  0.32926  1.0000
  H   H7        1.0  0.30762  0.61558  0.33076  1.0000
  H   H8        1.0  0.31236  0.69805  0.33093  1.0000
  H   H9        1.0  0.39009  0.69329  0.32911  1.0000
  C   C18       1.0  0.38312  0.75479  0.33159  1.0000
  C   C19       1.0  0.36914  0.72859  0.33022  1.0000
  C   C20       1.0  0.37611  0.62255  0.33139  1.0000
  C   C21       1.0  0.36388  0.63652  0.33005  1.0000
  C   C22       1.0  0.27706  0.64182  0.33198  1.0000
  C   C23       1.0  0.25086  0.62970  0.33370  1.0000
  N   N1        1.0  0.43337  0.55958  0.34092  1.0000
  N   N2        1.0  0.44617  0.87497  0.34096  1.0000
  C   C24       1.0  0.78468  0.39376  0.34175  1.0000
  C   C25       1.0  0.61225  0.39234  0.34060  1.0000
  C   C26       1.0  0.61340  0.22101  0.34070  1.0000
  C   C27       1.0  0.58109  0.42362  0.34050  1.0000
  C   C28       1.0  0.60948  0.43606  0.30252  1.0000
  C   C29       1.0  0.62489  0.42058  0.30231  1.0000
  C   C30       1.0  0.83139  0.39488  0.32368  1.0000
  C   C31       1.0  0.80051  0.37926  0.32312  1.0000
  C   C32       1.0  0.58218  0.15858  0.34064  1.0000
  C   C33       1.0  0.56950  0.17451  0.30409  1.0000
  C   C34       1.0  0.58494  0.20537  0.30384  1.0000
  H   H10       1.0  0.61938  0.45664  0.27548  1.0000
  H   H11       1.0  0.64540  0.43025  0.27428  1.0000
  H   H12       1.0  0.78984  0.35724  0.30934  1.0000
  H   H13       1.0  0.84226  0.38370  0.31131  1.0000
  H   H14       1.0  0.54877  0.16380  0.27812  1.0000
  H   H15       1.0  0.57510  0.21620  0.27684  1.0000
  C   C35       1.0  0.65480  0.30453  0.33996  1.0000
  C   C36       1.0  0.68579  0.32035  0.34011  1.0000
  C   C37       1.0  0.70115  0.35134  0.34018  1.0000
  C   C38       1.0  0.68532  0.36650  0.34007  1.0000
  C   C39       1.0  0.65433  0.35087  0.33992  1.0000
  C   C40       1.0  0.63917  0.31989  0.33984  1.0000
  H   H16       1.0  0.69642  0.38904  0.34024  1.0000
  H   H17       1.0  0.69724  0.30925  0.34032  1.0000
  H   H18       1.0  0.61662  0.30846  0.33985  1.0000
  C   C41       1.0  0.62771  0.24965  0.34055  1.0000
  C   C42       1.0  0.64069  0.27587  0.34023  1.0000
  C   C43       1.0  0.62656  0.37800  0.34046  1.0000
  C   C44       1.0  0.63979  0.36500  0.34017  1.0000
  C   C45       1.0  0.72981  0.36590  0.34067  1.0000
  C   C46       1.0  0.75603  0.37926  0.34123  1.0000
  N   N3        1.0  0.56545  0.43719  0.34404  1.0000
  N   N4        1.0  0.56864  0.12938  0.34421  1.0000
  C   C47       1.0  0.48326  0.51752  0.27995  1.0000
  C   C48       1.0  0.46897  0.53377  0.29306  1.0000
  H   H19       1.0  0.48586  0.51226  0.21590  1.0000
  H   H20       1.0  0.46207  0.54015  0.23779  1.0000
  C   C49       1.0  0.54798  0.46970  0.31224  1.0000
  C   C50       1.0  0.55365  0.49572  0.26780  1.0000
  C   C51       1.0  0.53570  0.50809  0.28121  1.0000
  H   H21       1.0  0.57121  0.50623  0.22546  1.0000
  H   H22       1.0  0.54109  0.52730  0.24893  1.0000
  C   C52       1.0  0.56634  0.45812  0.29702  1.0000
  H   H23       1.0  0.58077  0.46639  0.24720  1.0000
  C   C53       1.0  0.48821  0.96691  0.27998  1.0000
  C   C54       1.0  0.47193  0.93639  0.29298  1.0000
  H   H24       1.0  0.49351  0.97480  0.21596  1.0000
  H   H25       1.0  0.46558  0.92312  0.23767  1.0000
  C   C55       1.0  0.53600  0.07942  0.31270  1.0000
  C   C56       1.0  0.50998  0.05907  0.26819  1.0000
  C   C57       1.0  0.49762  0.02876  0.28146  1.0000
  H   H26       1.0  0.49947  0.06613  0.22585  1.0000
  H   H27       1.0  0.47842  0.01496  0.24910  1.0000
  C   C58       1.0  0.54754  0.10936  0.29767  1.0000
  H   H28       1.0  0.53910  0.11552  0.24835  1.0000
  C   C59       1.0  0.03861  0.52279  0.28033  1.0000
  C   C60       1.0  0.06918  0.53694  0.29220  1.0000
  H   H29       1.0  0.03047  0.52031  0.21666  1.0000
  H   H30       1.0  0.08227  0.54390  0.23649  1.0000
  C   C61       1.0  0.92626  0.45704  0.31835  1.0000
  C   C62       1.0  0.94659  0.45166  0.27238  1.0000
  C   C63       1.0  0.97694  0.46998  0.28378  1.0000
  H   H31       1.0  0.93949  0.43398  0.23053  1.0000
  H   H32       1.0  0.99072  0.46473  0.25067  1.0000
  C   C64       1.0  0.89627  0.43792  0.30647  1.0000
  H   H33       1.0  0.88999  0.42093  0.26542  1.0000
  C   C65       1.0  0.41854  0.62069  0.36976  1.0000
  C   C66       1.0  0.43350  0.60480  0.37291  1.0000
  C   C67       1.0  0.20613  0.58575  0.35447  1.0000
  C   C68       1.0  0.17529  0.57103  0.35722  1.0000
  C   C69       1.0  0.15989  0.58631  0.34238  1.0000
  C   C70       1.0  0.38486  0.79910  0.36866  1.0000
  C   C71       1.0  0.40077  0.82994  0.37174  1.0000
  H   H34       1.0  0.45437  0.61493  0.39786  1.0000
  H   H35       1.0  0.21658  0.57402  0.36559  1.0000
  H   H36       1.0  0.16415  0.54896  0.36923  1.0000
  H   H37       1.0  0.36365  0.78836  0.39149  1.0000
  H   H38       1.0  0.39056  0.84072  0.39573  1.0000
  H   H39       1.0  0.42885  0.64179  0.39351  1.0000
  N   N5        1.0  0.13072  0.57336  0.34242  1.0000
  C   C72       1.0  0.58409  0.37992  0.37951  1.0000
  C   C73       1.0  0.56880  0.39553  0.37971  1.0000
  C   C74       1.0  0.80018  0.42404  0.36154  1.0000
  C   C75       1.0  0.83108  0.43955  0.36227  1.0000
  C   C76       1.0  0.84710  0.42532  0.34232  1.0000
  C   C77       1.0  0.62606  0.20530  0.37825  1.0000
  C   C78       1.0  0.61048  0.17441  0.37850  1.0000
  H   H40       1.0  0.54842  0.38609  0.40839  1.0000
  H   H41       1.0  0.78925  0.43510  0.37578  1.0000
  H   H42       1.0  0.84185  0.46148  0.37684  1.0000
  H   H43       1.0  0.64663  0.21607  0.40590  1.0000
  H   H44       1.0  0.62010  0.16349  0.40618  1.0000
  H   H45       1.0  0.57444  0.35951  0.40818  1.0000
  N   N6        1.0  0.87629  0.44129  0.34516  1.0000
  C   C79       1.0  0.46541  0.54229  0.38000  1.0000
  C   C80       1.0  0.47616  0.53361  0.45446  1.0000
  C   C81       1.0  0.49057  0.51732  0.44001  1.0000
  C   C82       1.0  0.49450  0.50918  0.35315  1.0000
  C   C83       1.0  0.51127  0.49496  0.33953  1.0000
  C   C84       1.0  0.50512  0.46869  0.38462  1.0000
  C   C85       1.0  0.52345  0.45645  0.37030  1.0000
  H   H46       1.0  0.51852  0.43741  0.40284  1.0000
  H   H47       1.0  0.49919  0.51226  0.49400  1.0000
  N   N7        1.0  0.48028  0.45459  0.44131  1.0000
  N   N8        1.0  0.47261  0.54147  0.54249  1.0000
  O   O1        1.0  0.48742  0.45251  0.52015  1.0000
  O   O2        1.0  0.49689  0.55732  0.58010  1.0000
  O   O3        1.0  0.46224  0.42937  0.41336  1.0000
  O   O4        1.0  0.45761  0.51921  0.59021  1.0000
  C   C86       1.0  0.45379  0.56075  0.39122  1.0000
  H   H48       1.0  0.46163  0.57535  0.44060  1.0000
  C   C87       1.0  0.46337  0.92427  0.37986  1.0000
  C   C88       1.0  0.47203  0.94366  0.45440  1.0000
  C   C89       1.0  0.48835  0.97436  0.44006  1.0000
  C   C90       1.0  0.49652  0.98645  0.35325  1.0000
  C   C91       1.0  0.51075  0.01745  0.33975  1.0000
  C   C92       1.0  0.53700  0.03754  0.38492  1.0000
  C   C93       1.0  0.54924  0.06811  0.37073  1.0000
  H   H49       1.0  0.56826  0.08221  0.40335  1.0000
  H   H50       1.0  0.49338  0.98802  0.49410  1.0000
  N   N9        1.0  0.55111  0.02679  0.44156  1.0000
  N   N10       1.0  0.46412  0.93222  0.54237  1.0000
  O   O5        1.0  0.55315  0.03596  0.52045  1.0000
  O   O6        1.0  0.44826  0.94065  0.57994  1.0000
  O   O7        1.0  0.57634  0.03399  0.41366  1.0000
  O   O8        1.0  0.48635  0.93943  0.59018  1.0000
  C   C94       1.0  0.44488  0.89421  0.39096  1.0000
  H   H51       1.0  0.43015  0.88746  0.44001  1.0000
  C   C95       1.0  0.08156  0.54016  0.37850  1.0000
  C   C96       1.0  0.06249  0.52928  0.45369  1.0000
  C   C97       1.0  0.03174  0.51507  0.44051  1.0000
  C   C98       1.0  0.01934  0.51141  0.35422  1.0000
  C   C99       1.0  0.98831  0.49451  0.34169  1.0000
  C   C100      1.0  0.96826  0.50044  0.38812  1.0000
  C   C101      1.0  0.93765  0.48175  0.37572  1.0000
  H   H52       1.0  0.92358  0.48640  0.40979  1.0000
  H   H53       1.0  0.01827  0.50631  0.49489  1.0000
  N   N11       1.0  0.97910  0.52536  0.44453  1.0000
  N   N12       1.0  0.07433  0.53249  0.54096  1.0000
  O   O9        1.0  0.97043  0.51829  0.52387  1.0000
  O   O10       1.0  0.06595  0.50807  0.57754  1.0000
  O   O11       1.0  0.97144  0.54312  0.41741  1.0000
  O   O12       1.0  0.06742  0.54743  0.59029  1.0000
  C   C102      1.0  0.11158  0.55133  0.38805  1.0000
  H   H54       1.0  0.11833  0.54190  0.43246  1.0000
