data_image0
_chemical_formula_structural       CHC3H2C2OHCHC3H2C2OHC2OHC2HC2OHC2HC2H2C2H2C3OH2C3OH2C3HOHC3HOHC3HOHC3HC3HC6H3C6H3C3HOHC3HOHC3OH2C3OH2C3OH2C3OH2C3OH2C3HOHC3HOHC3HOHC3HC3HC6H3C6H3C3HOHC3HOHC3OH2C3OH2C3OH2C3OH2C3OH2C3OH2C3HOHC3HOHC3HOHC6H3C6H3C6H3C6H3C3HOHC3HOHC3HOHC3OH2C3OH2C3OH2C3OH2C3OH2C3OH2C3HOHC3HOHC3HOHC6H3C6H3C6H3C6H3C3HOHC3HOHC3HOHC3OH2C3OH2C3OH2
_chemical_formula_sum              "C240 H144 O48"
_cell_length_a       45.5936
_cell_length_b       45.6148
_cell_length_c       14.8479
_cell_angle_alpha    90
_cell_angle_beta     90
_cell_angle_gamma    119.989

_space_group_name_H-M_alt    "P 1"
_space_group_IT_number       1

loop_
  _space_group_symop_operation_xyz
  'x, y, z'

loop_
  _atom_site_type_symbol
  _atom_site_label
  _atom_site_symmetry_multiplicity
  _atom_site_fract_x
  _atom_site_fract_y
  _atom_site_fract_z
  _atom_site_occupancy
  C   C1        1.0  0.09603  0.03240  0.28211  1.0000
  H   H1        1.0  0.08322  0.01386  0.23514  1.0000
  C   C2        1.0  0.04136  0.02203  0.34512  1.0000
  C   C3        1.0  0.02265  0.03920  0.34484  1.0000
  C   C4        1.0  0.02301  0.48616  0.34466  1.0000
  H   H2        1.0  0.03612  0.47334  0.34411  1.0000
  H   H3        1.0  0.03548  0.06512  0.34443  1.0000
  C   C5        1.0  0.09681  0.06677  0.40759  1.0000
  C   C6        1.0  0.07777  0.04036  0.34518  1.0000
  O   O1        1.0  0.08154  0.07562  0.47240  1.0000
  H   H4        1.0  0.07545  0.05897  0.52121  1.0000
  C   C7        1.0  0.09603  0.53240  0.28211  1.0000
  H   H5        1.0  0.08322  0.51386  0.23514  1.0000
  C   C8        1.0  0.04136  0.52203  0.34512  1.0000
  C   C9        1.0  0.02265  0.53919  0.34484  1.0000
  C   C10       1.0  0.02301  0.98616  0.34466  1.0000
  H   H6        1.0  0.03612  0.97334  0.34411  1.0000
  H   H7        1.0  0.03548  0.56512  0.34443  1.0000
  C   C11       1.0  0.09681  0.56677  0.40758  1.0000
  C   C12       1.0  0.07777  0.54036  0.34518  1.0000
  O   O2        1.0  0.08154  0.57562  0.47240  1.0000
  H   H8        1.0  0.07545  0.55897  0.52121  1.0000
  C   C13       1.0  0.13178  0.05017  0.27976  1.0000
  C   C14       1.0  0.15082  0.07657  0.34218  1.0000
  O   O3        1.0  0.14705  0.04128  0.21504  1.0000
  H   H9        1.0  0.15326  0.05797  0.16629  1.0000
  C   C15       1.0  0.18721  0.09479  0.34251  1.0000
  C   C16       1.0  0.13256  0.08456  0.40521  1.0000
  H   H10       1.0  0.14537  0.10309  0.45220  1.0000
  C   C17       1.0  0.13178  0.55017  0.27976  1.0000
  C   C18       1.0  0.15082  0.57657  0.34218  1.0000
  O   O4        1.0  0.14705  0.54128  0.21504  1.0000
  H   H11       1.0  0.15326  0.55797  0.16629  1.0000
  C   C19       1.0  0.18720  0.59479  0.34251  1.0000
  C   C20       1.0  0.13256  0.58455  0.40521  1.0000
  H   H12       1.0  0.14537  0.60309  0.45220  1.0000
  C   C21       1.0  0.20562  0.13079  0.34343  1.0000
  C   C22       1.0  0.20574  0.07731  0.34274  1.0000
  H   H13       1.0  0.19295  0.14405  0.34254  1.0000
  H   H14       1.0  0.19317  0.05140  0.34393  1.0000
  C   C23       1.0  0.20562  0.63079  0.34343  1.0000
  C   C24       1.0  0.20574  0.57731  0.34274  1.0000
  H   H15       1.0  0.19295  0.64405  0.34253  1.0000
  H   H16       1.0  0.19317  0.55140  0.34393  1.0000
  C   C25       1.0  0.47660  0.06615  0.28244  1.0000
  C   C26       1.0  0.45889  0.08419  0.28014  1.0000
  C   C27       1.0  0.43236  0.07675  0.34222  1.0000
  O   O5        1.0  0.46798  0.10849  0.21577  1.0000
  H   H17       1.0  0.49523  0.07196  0.23570  1.0000
  H   H18       1.0  0.45138  0.09815  0.16675  1.0000
  C   C28       1.0  0.44271  0.41282  0.28223  1.0000
  C   C29       1.0  0.42470  0.37708  0.27993  1.0000
  C   C30       1.0  0.43214  0.35803  0.34210  1.0000
  O   O6        1.0  0.40042  0.36185  0.21548  1.0000
  H   H19       1.0  0.43690  0.42562  0.23543  1.0000
  H   H20       1.0  0.41080  0.35560  0.16653  1.0000
  C   C31       1.0  0.30781  0.07794  0.26203  1.0000
  C   C32       1.0  0.27679  0.07775  0.26082  1.0000
  C   C33       1.0  0.26156  0.07917  0.34282  1.0000
  H   H21       1.0  0.32053  0.08161  0.20242  1.0000
  O   O7        1.0  0.26593  0.08289  0.17998  1.0000
  H   H22       1.0  0.24450  0.06206  0.16680  1.0000
  C   C34       1.0  0.43125  0.23251  0.26205  1.0000
  C   C35       1.0  0.43141  0.20169  0.26083  1.0000
  C   C36       1.0  0.42983  0.18491  0.34265  1.0000
  H   H23       1.0  0.42761  0.24162  0.20249  1.0000
  O   O8        1.0  0.42639  0.18576  0.17993  1.0000
  H   H24       1.0  0.44727  0.18522  0.16688  1.0000
  C   C37       1.0  0.27648  0.20118  0.26212  1.0000
  C   C38       1.0  0.30730  0.23218  0.26099  1.0000
  C   C39       1.0  0.32396  0.24734  0.34303  1.0000
  H   H25       1.0  0.26743  0.18850  0.20247  1.0000
  O   O9        1.0  0.32330  0.24309  0.18017  1.0000
  H   H26       1.0  0.32387  0.26452  0.16713  1.0000
  C   C40       1.0  0.48676  0.02167  0.34508  1.0000
  C   C41       1.0  0.46960  0.48581  0.34466  1.0000
  C   C42       1.0  0.48713  0.46746  0.34498  1.0000
  H   H27       1.0  0.44367  0.47272  0.34411  1.0000
  C   C43       1.0  0.24151  0.09504  0.34309  1.0000
  C   C44       1.0  0.25886  0.13070  0.34337  1.0000
  C   C45       1.0  0.24140  0.14893  0.34359  1.0000
  H   H28       1.0  0.28488  0.14374  0.34354  1.0000
  C   C46       1.0  0.41394  0.14899  0.34317  1.0000
  C   C47       1.0  0.37826  0.13070  0.34329  1.0000
  C   C48       1.0  0.36002  0.09503  0.34346  1.0000
  C   C49       1.0  0.37815  0.07738  0.34337  1.0000
  C   C50       1.0  0.41416  0.09495  0.34253  1.0000
  C   C51       1.0  0.43166  0.13094  0.34281  1.0000
  H   H29       1.0  0.36487  0.05146  0.34245  1.0000
  H   H30       1.0  0.45758  0.14427  0.34404  1.0000
  H   H31       1.0  0.36522  0.14368  0.34339  1.0000
  C   C52       1.0  0.35989  0.26738  0.34327  1.0000
  C   C53       1.0  0.37821  0.25002  0.34353  1.0000
  C   C54       1.0  0.41390  0.26745  0.34365  1.0000
  C   C55       1.0  0.43154  0.30322  0.34333  1.0000
  C   C56       1.0  0.41396  0.32165  0.34247  1.0000
  C   C57       1.0  0.37794  0.30314  0.34284  1.0000
  H   H32       1.0  0.45747  0.31586  0.34235  1.0000
  H   H33       1.0  0.36460  0.31572  0.34405  1.0000
  H   H34       1.0  0.36523  0.22401  0.34372  1.0000
  C   C58       1.0  0.42419  0.05035  0.40486  1.0000
  C   C59       1.0  0.44190  0.03232  0.40717  1.0000
  C   C60       1.0  0.46844  0.03977  0.34511  1.0000
  H   H35       1.0  0.40555  0.04455  0.45160  1.0000
  O   O10       1.0  0.43284  0.00804  0.47160  1.0000
  H   H36       1.0  0.44939  0.01845  0.52071  1.0000
  C   C61       1.0  0.45850  0.37627  0.40483  1.0000
  C   C62       1.0  0.47650  0.41200  0.40716  1.0000
  C   C63       1.0  0.46905  0.43106  0.34500  1.0000
  H   H37       1.0  0.46429  0.36345  0.45166  1.0000
  O   O11       1.0  0.50073  0.42723  0.47172  1.0000
  H   H38       1.0  0.49026  0.43335  0.52074  1.0000
  C   C64       1.0  0.27659  0.07783  0.42488  1.0000
  C   C65       1.0  0.30743  0.07767  0.42607  1.0000
  C   C66       1.0  0.32407  0.07908  0.34412  1.0000
  O   O12       1.0  0.32345  0.08280  0.50686  1.0000
  H   H39       1.0  0.26761  0.08165  0.48440  1.0000
  H   H40       1.0  0.32384  0.06188  0.52029  1.0000
  C   C67       1.0  0.43089  0.20112  0.42480  1.0000
  C   C68       1.0  0.43107  0.23212  0.42613  1.0000
  C   C69       1.0  0.42985  0.24746  0.34417  1.0000
  O   O13       1.0  0.42578  0.24288  0.50691  1.0000
  H   H41       1.0  0.42702  0.18831  0.48433  1.0000
  H   H42       1.0  0.44667  0.26419  0.52062  1.0000
  C   C70       1.0  0.30762  0.23226  0.42506  1.0000
  C   C71       1.0  0.27662  0.20143  0.42617  1.0000
  C   C72       1.0  0.26139  0.18486  0.34413  1.0000
  O   O14       1.0  0.26575  0.18538  0.50691  1.0000
  H   H43       1.0  0.32042  0.24119  0.48458  1.0000
  H   H44       1.0  0.24444  0.18499  0.52041  1.0000
  C   C73       1.0  0.47660  0.56615  0.28244  1.0000
  C   C74       1.0  0.45889  0.58419  0.28013  1.0000
  C   C75       1.0  0.43236  0.57675  0.34222  1.0000
  O   O15       1.0  0.46798  0.60849  0.21576  1.0000
  H   H45       1.0  0.49523  0.57195  0.23570  1.0000
  H   H46       1.0  0.45138  0.59815  0.16675  1.0000
  C   C76       1.0  0.44271  0.91282  0.28223  1.0000
  C   C77       1.0  0.42470  0.87708  0.27992  1.0000
  C   C78       1.0  0.43214  0.85803  0.34210  1.0000
  O   O16       1.0  0.40042  0.86185  0.21548  1.0000
  H   H47       1.0  0.43690  0.92563  0.23543  1.0000
  H   H48       1.0  0.41080  0.85560  0.16653  1.0000
  C   C79       1.0  0.30781  0.57793  0.26203  1.0000
  C   C80       1.0  0.27679  0.57775  0.26082  1.0000
  C   C81       1.0  0.26156  0.57917  0.34283  1.0000
  H   H49       1.0  0.32053  0.58161  0.20242  1.0000
  O   O17       1.0  0.26593  0.58289  0.17998  1.0000
  H   H50       1.0  0.24450  0.56206  0.16680  1.0000
  C   C82       1.0  0.43125  0.73251  0.26205  1.0000
  C   C83       1.0  0.43141  0.70169  0.26083  1.0000
  C   C84       1.0  0.42983  0.68491  0.34265  1.0000
  H   H51       1.0  0.42761  0.74162  0.20249  1.0000
  O   O18       1.0  0.42639  0.68576  0.17993  1.0000
  H   H52       1.0  0.44727  0.68522  0.16688  1.0000
  C   C85       1.0  0.27648  0.70118  0.26212  1.0000
  C   C86       1.0  0.30730  0.73218  0.26099  1.0000
  C   C87       1.0  0.32396  0.74734  0.34303  1.0000
  H   H53       1.0  0.26743  0.68850  0.20247  1.0000
  O   O19       1.0  0.32330  0.74309  0.18017  1.0000
  H   H54       1.0  0.32387  0.76452  0.16713  1.0000
  C   C88       1.0  0.48676  0.52167  0.34508  1.0000
  C   C89       1.0  0.46960  0.98581  0.34466  1.0000
  C   C90       1.0  0.48713  0.96746  0.34498  1.0000
  H   H55       1.0  0.44367  0.97272  0.34411  1.0000
  C   C91       1.0  0.24151  0.59504  0.34309  1.0000
  C   C92       1.0  0.25886  0.63070  0.34337  1.0000
  C   C93       1.0  0.24140  0.64892  0.34359  1.0000
  H   H56       1.0  0.28488  0.64374  0.34354  1.0000
  C   C94       1.0  0.41394  0.64899  0.34317  1.0000
  C   C95       1.0  0.37825  0.63070  0.34329  1.0000
  C   C96       1.0  0.36002  0.59503  0.34346  1.0000
  C   C97       1.0  0.37815  0.57738  0.34337  1.0000
  C   C98       1.0  0.41417  0.59495  0.34253  1.0000
  C   C99       1.0  0.43166  0.63094  0.34281  1.0000
  H   H57       1.0  0.36487  0.55146  0.34245  1.0000
  H   H58       1.0  0.45758  0.64427  0.34404  1.0000
  H   H59       1.0  0.36522  0.64368  0.34339  1.0000
  C   C100      1.0  0.35989  0.76738  0.34327  1.0000
  C   C101      1.0  0.37821  0.75002  0.34353  1.0000
  C   C102      1.0  0.41390  0.76745  0.34365  1.0000
  C   C103      1.0  0.43154  0.80322  0.34333  1.0000
  C   C104      1.0  0.41395  0.82165  0.34247  1.0000
  C   C105      1.0  0.37794  0.80314  0.34284  1.0000
  H   H60       1.0  0.45747  0.81586  0.34235  1.0000
  H   H61       1.0  0.36460  0.81571  0.34405  1.0000
  H   H62       1.0  0.36523  0.72401  0.34372  1.0000
  C   C106      1.0  0.42419  0.55036  0.40486  1.0000
  C   C107      1.0  0.44190  0.53231  0.40717  1.0000
  C   C108      1.0  0.46844  0.53977  0.34511  1.0000
  H   H63       1.0  0.40555  0.54455  0.45160  1.0000
  O   O20       1.0  0.43284  0.50804  0.47160  1.0000
  H   H64       1.0  0.44939  0.51845  0.52071  1.0000
  C   C109      1.0  0.45850  0.87627  0.40484  1.0000
  C   C110      1.0  0.47650  0.91200  0.40716  1.0000
  C   C111      1.0  0.46905  0.93106  0.34500  1.0000
  H   H65       1.0  0.46429  0.86345  0.45167  1.0000
  O   O21       1.0  0.50073  0.92723  0.47172  1.0000
  H   H66       1.0  0.49026  0.93335  0.52074  1.0000
  C   C112      1.0  0.27659  0.57783  0.42489  1.0000
  C   C113      1.0  0.30743  0.57767  0.42607  1.0000
  C   C114      1.0  0.32407  0.57908  0.34412  1.0000
  O   O22       1.0  0.32345  0.58280  0.50686  1.0000
  H   H67       1.0  0.26761  0.58166  0.48440  1.0000
  H   H68       1.0  0.32384  0.56188  0.52029  1.0000
  C   C115      1.0  0.43089  0.70112  0.42480  1.0000
  C   C116      1.0  0.43107  0.73212  0.42613  1.0000
  C   C117      1.0  0.42985  0.74746  0.34417  1.0000
  O   O23       1.0  0.42578  0.74288  0.50691  1.0000
  H   H69       1.0  0.42702  0.68831  0.48433  1.0000
  H   H70       1.0  0.44667  0.76419  0.52062  1.0000
  C   C118      1.0  0.30762  0.73226  0.42505  1.0000
  C   C119      1.0  0.27662  0.70143  0.42617  1.0000
  C   C120      1.0  0.26138  0.68486  0.34413  1.0000
  O   O24       1.0  0.26575  0.68538  0.50691  1.0000
  H   H71       1.0  0.32042  0.74119  0.48458  1.0000
  H   H72       1.0  0.24443  0.68499  0.52041  1.0000
  C   C121      1.0  0.59603  0.03240  0.28211  1.0000
  C   C122      1.0  0.63178  0.05017  0.27976  1.0000
  C   C123      1.0  0.65082  0.07657  0.34218  1.0000
  O   O25       1.0  0.64705  0.04128  0.21504  1.0000
  H   H73       1.0  0.58322  0.01386  0.23514  1.0000
  H   H74       1.0  0.65326  0.05797  0.16629  1.0000
  C   C124      1.0  0.97660  0.06615  0.28244  1.0000
  C   C125      1.0  0.95889  0.08419  0.28014  1.0000
  C   C126      1.0  0.93236  0.07675  0.34222  1.0000
  O   O26       1.0  0.96798  0.10849  0.21577  1.0000
  H   H75       1.0  0.99524  0.07196  0.23570  1.0000
  H   H76       1.0  0.95138  0.09815  0.16675  1.0000
  C   C127      1.0  0.94271  0.41282  0.28223  1.0000
  C   C128      1.0  0.92470  0.37708  0.27993  1.0000
  C   C129      1.0  0.93214  0.35803  0.34210  1.0000
  O   O27       1.0  0.90042  0.36185  0.21548  1.0000
  H   H77       1.0  0.93690  0.42562  0.23543  1.0000
  H   H78       1.0  0.91080  0.35560  0.16653  1.0000
  C   C130      1.0  0.80781  0.07794  0.26203  1.0000
  C   C131      1.0  0.77679  0.07775  0.26082  1.0000
  C   C132      1.0  0.76157  0.07917  0.34282  1.0000
  H   H79       1.0  0.82053  0.08161  0.20242  1.0000
  O   O28       1.0  0.76593  0.08289  0.17998  1.0000
  H   H80       1.0  0.74450  0.06206  0.16680  1.0000
  C   C133      1.0  0.93125  0.23251  0.26205  1.0000
  C   C134      1.0  0.93141  0.20169  0.26083  1.0000
  C   C135      1.0  0.92983  0.18491  0.34265  1.0000
  H   H81       1.0  0.92761  0.24162  0.20249  1.0000
  O   O29       1.0  0.92639  0.18576  0.17993  1.0000
  H   H82       1.0  0.94727  0.18522  0.16688  1.0000
  C   C136      1.0  0.77648  0.20118  0.26212  1.0000
  C   C137      1.0  0.80731  0.23218  0.26099  1.0000
  C   C138      1.0  0.82396  0.24734  0.34303  1.0000
  H   H83       1.0  0.76743  0.18850  0.20247  1.0000
  O   O30       1.0  0.82330  0.24309  0.18017  1.0000
  H   H84       1.0  0.82387  0.26452  0.16713  1.0000
  C   C139      1.0  0.54136  0.02203  0.34512  1.0000
  C   C140      1.0  0.52265  0.03920  0.34484  1.0000
  C   C141      1.0  0.98676  0.02167  0.34508  1.0000
  C   C142      1.0  0.96960  0.48581  0.34466  1.0000
  C   C143      1.0  0.98713  0.46746  0.34498  1.0000
  C   C144      1.0  0.52301  0.48616  0.34466  1.0000
  H   H85       1.0  0.94367  0.47272  0.34411  1.0000
  H   H86       1.0  0.53612  0.47334  0.34411  1.0000
  H   H87       1.0  0.53548  0.06512  0.34443  1.0000
  C   C145      1.0  0.74151  0.09504  0.34309  1.0000
  C   C146      1.0  0.75886  0.13070  0.34337  1.0000
  C   C147      1.0  0.74140  0.14893  0.34359  1.0000
  C   C148      1.0  0.70562  0.13079  0.34343  1.0000
  C   C149      1.0  0.68720  0.09479  0.34251  1.0000
  C   C150      1.0  0.70574  0.07731  0.34274  1.0000
  H   H88       1.0  0.69295  0.14405  0.34254  1.0000
  H   H89       1.0  0.69317  0.05140  0.34393  1.0000
  H   H90       1.0  0.78489  0.14374  0.34354  1.0000
  C   C151      1.0  0.91394  0.14899  0.34317  1.0000
  C   C152      1.0  0.87826  0.13070  0.34329  1.0000
  C   C153      1.0  0.86002  0.09503  0.34346  1.0000
  C   C154      1.0  0.87815  0.07738  0.34337  1.0000
  C   C155      1.0  0.91417  0.09495  0.34253  1.0000
  C   C156      1.0  0.93166  0.13094  0.34281  1.0000
  H   H91       1.0  0.86487  0.05146  0.34245  1.0000
  H   H92       1.0  0.95758  0.14427  0.34404  1.0000
  H   H93       1.0  0.86522  0.14368  0.34339  1.0000
  C   C157      1.0  0.85989  0.26738  0.34327  1.0000
  C   C158      1.0  0.87821  0.25002  0.34353  1.0000
  C   C159      1.0  0.91390  0.26745  0.34365  1.0000
  C   C160      1.0  0.93154  0.30322  0.34333  1.0000
  C   C161      1.0  0.91396  0.32165  0.34247  1.0000
  C   C162      1.0  0.87794  0.30314  0.34284  1.0000
  H   H94       1.0  0.95747  0.31586  0.34235  1.0000
  H   H95       1.0  0.86460  0.31572  0.34405  1.0000
  H   H96       1.0  0.86523  0.22401  0.34372  1.0000
  C   C163      1.0  0.63256  0.08456  0.40521  1.0000
  C   C164      1.0  0.59681  0.06677  0.40759  1.0000
  C   C165      1.0  0.57777  0.04036  0.34518  1.0000
  H   H97       1.0  0.64537  0.10309  0.45220  1.0000
  O   O31       1.0  0.58154  0.07562  0.47240  1.0000
  H   H98       1.0  0.57545  0.05897  0.52121  1.0000
  C   C166      1.0  0.92419  0.05035  0.40486  1.0000
  C   C167      1.0  0.94190  0.03232  0.40717  1.0000
  C   C168      1.0  0.96844  0.03977  0.34511  1.0000
  H   H99       1.0  0.90555  0.04455  0.45160  1.0000
  O   O32       1.0  0.93284  0.00804  0.47160  1.0000
  H   H100      1.0  0.94939  0.01845  0.52071  1.0000
  C   C169      1.0  0.95850  0.37627  0.40483  1.0000
  C   C170      1.0  0.97650  0.41200  0.40716  1.0000
  C   C171      1.0  0.96906  0.43106  0.34500  1.0000
  H   H101      1.0  0.96429  0.36345  0.45166  1.0000
  O   O33       1.0  0.00073  0.42723  0.47172  1.0000
  H   H102      1.0  0.99026  0.43335  0.52074  1.0000
  C   C172      1.0  0.77659  0.07783  0.42488  1.0000
  C   C173      1.0  0.80743  0.07767  0.42607  1.0000
  C   C174      1.0  0.82407  0.07908  0.34412  1.0000
  O   O34       1.0  0.82345  0.08280  0.50686  1.0000
  H   H103      1.0  0.76761  0.08165  0.48440  1.0000
  H   H104      1.0  0.82384  0.06188  0.52029  1.0000
  C   C175      1.0  0.93089  0.20112  0.42480  1.0000
  C   C176      1.0  0.93107  0.23212  0.42613  1.0000
  C   C177      1.0  0.92985  0.24746  0.34417  1.0000
  O   O35       1.0  0.92578  0.24288  0.50691  1.0000
  H   H105      1.0  0.92702  0.18831  0.48433  1.0000
  H   H106      1.0  0.94667  0.26419  0.52062  1.0000
  C   C178      1.0  0.80762  0.23226  0.42506  1.0000
  C   C179      1.0  0.77662  0.20143  0.42617  1.0000
  C   C180      1.0  0.76139  0.18486  0.34413  1.0000
  O   O36       1.0  0.76575  0.18538  0.50691  1.0000
  H   H107      1.0  0.82042  0.24119  0.48458  1.0000
  H   H108      1.0  0.74444  0.18499  0.52041  1.0000
  C   C181      1.0  0.59603  0.53240  0.28211  1.0000
  C   C182      1.0  0.63178  0.55017  0.27976  1.0000
  C   C183      1.0  0.65082  0.57657  0.34218  1.0000
  O   O37       1.0  0.64705  0.54128  0.21504  1.0000
  H   H109      1.0  0.58322  0.51386  0.23514  1.0000
  H   H110      1.0  0.65326  0.55797  0.16629  1.0000
  C   C184      1.0  0.97660  0.56615  0.28244  1.0000
  C   C185      1.0  0.95889  0.58419  0.28013  1.0000
  C   C186      1.0  0.93236  0.57675  0.34222  1.0000
  O   O38       1.0  0.96798  0.60849  0.21576  1.0000
  H   H111      1.0  0.99523  0.57195  0.23570  1.0000
  H   H112      1.0  0.95138  0.59815  0.16675  1.0000
  C   C187      1.0  0.94271  0.91282  0.28223  1.0000
  C   C188      1.0  0.92470  0.87708  0.27992  1.0000
  C   C189      1.0  0.93214  0.85803  0.34210  1.0000
  O   O39       1.0  0.90042  0.86185  0.21548  1.0000
  H   H113      1.0  0.93690  0.92563  0.23543  1.0000
  H   H114      1.0  0.91080  0.85560  0.16653  1.0000
  C   C190      1.0  0.80781  0.57793  0.26203  1.0000
  C   C191      1.0  0.77679  0.57775  0.26082  1.0000
  C   C192      1.0  0.76156  0.57917  0.34283  1.0000
  H   H115      1.0  0.82053  0.58161  0.20242  1.0000
  O   O40       1.0  0.76593  0.58289  0.17998  1.0000
  H   H116      1.0  0.74450  0.56206  0.16680  1.0000
  C   C193      1.0  0.93125  0.73251  0.26205  1.0000
  C   C194      1.0  0.93141  0.70169  0.26083  1.0000
  C   C195      1.0  0.92983  0.68491  0.34265  1.0000
  H   H117      1.0  0.92761  0.74162  0.20249  1.0000
  O   O41       1.0  0.92639  0.68576  0.17993  1.0000
  H   H118      1.0  0.94727  0.68522  0.16688  1.0000
  C   C196      1.0  0.77648  0.70118  0.26212  1.0000
  C   C197      1.0  0.80731  0.73218  0.26099  1.0000
  C   C198      1.0  0.82396  0.74734  0.34303  1.0000
  H   H119      1.0  0.76743  0.68850  0.20247  1.0000
  O   O42       1.0  0.82330  0.74309  0.18017  1.0000
  H   H120      1.0  0.82387  0.76452  0.16713  1.0000
  C   C199      1.0  0.54136  0.52203  0.34512  1.0000
  C   C200      1.0  0.52265  0.53919  0.34484  1.0000
  C   C201      1.0  0.98676  0.52167  0.34508  1.0000
  C   C202      1.0  0.96960  0.98581  0.34466  1.0000
  C   C203      1.0  0.98713  0.96746  0.34498  1.0000
  C   C204      1.0  0.52301  0.98616  0.34466  1.0000
  H   H121      1.0  0.94366  0.97272  0.34411  1.0000
  H   H122      1.0  0.53612  0.97334  0.34411  1.0000
  H   H123      1.0  0.53548  0.56512  0.34443  1.0000
  C   C205      1.0  0.74151  0.59504  0.34309  1.0000
  C   C206      1.0  0.75886  0.63070  0.34337  1.0000
  C   C207      1.0  0.74140  0.64892  0.34359  1.0000
  C   C208      1.0  0.70562  0.63079  0.34343  1.0000
  C   C209      1.0  0.68720  0.59479  0.34251  1.0000
  C   C210      1.0  0.70574  0.57731  0.34274  1.0000
  H   H124      1.0  0.69295  0.64405  0.34253  1.0000
  H   H125      1.0  0.69317  0.55140  0.34393  1.0000
  H   H126      1.0  0.78488  0.64374  0.34354  1.0000
  C   C211      1.0  0.91394  0.64899  0.34317  1.0000
  C   C212      1.0  0.87826  0.63070  0.34329  1.0000
  C   C213      1.0  0.86002  0.59503  0.34346  1.0000
  C   C214      1.0  0.87815  0.57738  0.34337  1.0000
  C   C215      1.0  0.91417  0.59495  0.34253  1.0000
  C   C216      1.0  0.93166  0.63094  0.34281  1.0000
  H   H127      1.0  0.86487  0.55146  0.34245  1.0000
  H   H128      1.0  0.95758  0.64427  0.34404  1.0000
  H   H129      1.0  0.86522  0.64368  0.34339  1.0000
  C   C217      1.0  0.85989  0.76738  0.34327  1.0000
  C   C218      1.0  0.87821  0.75002  0.34353  1.0000
  C   C219      1.0  0.91390  0.76745  0.34365  1.0000
  C   C220      1.0  0.93154  0.80322  0.34333  1.0000
  C   C221      1.0  0.91396  0.82165  0.34247  1.0000
  C   C222      1.0  0.87794  0.80314  0.34284  1.0000
  H   H130      1.0  0.95747  0.81586  0.34235  1.0000
  H   H131      1.0  0.86460  0.81571  0.34405  1.0000
  H   H132      1.0  0.86522  0.72401  0.34372  1.0000
  C   C223      1.0  0.63256  0.58455  0.40521  1.0000
  C   C224      1.0  0.59681  0.56677  0.40758  1.0000
  C   C225      1.0  0.57777  0.54036  0.34518  1.0000
  H   H133      1.0  0.64537  0.60309  0.45220  1.0000
  O   O43       1.0  0.58154  0.57562  0.47240  1.0000
  H   H134      1.0  0.57545  0.55897  0.52121  1.0000
  C   C226      1.0  0.92419  0.55036  0.40486  1.0000
  C   C227      1.0  0.94190  0.53231  0.40717  1.0000
  C   C228      1.0  0.96844  0.53977  0.34511  1.0000
  H   H135      1.0  0.90555  0.54455  0.45160  1.0000
  O   O44       1.0  0.93284  0.50804  0.47160  1.0000
  H   H136      1.0  0.94939  0.51845  0.52071  1.0000
  C   C229      1.0  0.95850  0.87627  0.40484  1.0000
  C   C230      1.0  0.97650  0.91200  0.40716  1.0000
  C   C231      1.0  0.96905  0.93106  0.34500  1.0000
  H   H137      1.0  0.96429  0.86345  0.45167  1.0000
  O   O45       1.0  0.00073  0.92723  0.47172  1.0000
  H   H138      1.0  0.99026  0.93335  0.52074  1.0000
  C   C232      1.0  0.77659  0.57783  0.42489  1.0000
  C   C233      1.0  0.80743  0.57767  0.42607  1.0000
  C   C234      1.0  0.82407  0.57908  0.34412  1.0000
  O   O46       1.0  0.82345  0.58280  0.50686  1.0000
  H   H139      1.0  0.76761  0.58166  0.48440  1.0000
  H   H140      1.0  0.82384  0.56188  0.52029  1.0000
  C   C235      1.0  0.93089  0.70112  0.42480  1.0000
  C   C236      1.0  0.93107  0.73212  0.42613  1.0000
  C   C237      1.0  0.92985  0.74746  0.34417  1.0000
  O   O47       1.0  0.92578  0.74288  0.50691  1.0000
  H   H141      1.0  0.92702  0.68831  0.48433  1.0000
  H   H142      1.0  0.94667  0.76419  0.52062  1.0000
  C   C238      1.0  0.80762  0.73226  0.42505  1.0000
  C   C239      1.0  0.77662  0.70143  0.42617  1.0000
  C   C240      1.0  0.76138  0.68486  0.34413  1.0000
  O   O48       1.0  0.76575  0.68538  0.50691  1.0000
  H   H143      1.0  0.82042  0.74119  0.48458  1.0000
  H   H144      1.0  0.74444  0.68499  0.52041  1.0000
