data_image0
_chemical_formula_structural       C2HNHC4H2NO2C2NO2C6H2C2NO2C4H2NHC3H3CH2C2H2NHC3H2NO2C2HC3HNH2NO2C2HC3HNH2NO2C3HNO2C7H2NH2NO2C2HNHC7H2NH2NO2C7H2NH2NO2C7H2NH2NO2C6H3C6H3C6H3C6H3C6H3C3HNHC7H2NH2NO2C7H2NH2NO2C2HNHC2HC3HNH2NO2C3HNO2C2HC3HNH2NO2C2HC3HNH2NO2C2HC3HNH2NO2
_chemical_formula_sum              "C144 H90 N36 O36"
_cell_length_a       46.8393
_cell_length_b       46.8394
_cell_length_c       14.8196
_cell_angle_alpha    90
_cell_angle_beta     90
_cell_angle_gamma    120

_space_group_name_H-M_alt    "P 1"
_space_group_IT_number       1

loop_
  _space_group_symop_operation_xyz
  'x, y, z'

loop_
  _atom_site_type_symbol
  _atom_site_label
  _atom_site_symmetry_multiplicity
  _atom_site_fract_x
  _atom_site_fract_y
  _atom_site_fract_z
  _atom_site_occupancy
  C   C1        1.0  0.04531  0.50643  0.28071  1.0000
  C   C2        1.0  0.08032  0.52533  0.28269  1.0000
  H   H1        1.0  0.09325  0.52081  0.23452  1.0000
  N   N1        1.0  0.03073  0.48236  0.21714  1.0000
  H   H2        1.0  0.04377  0.47804  0.17391  1.0000
  C   C3        1.0  0.09821  0.55013  0.34793  1.0000
  C   C4        1.0  0.07940  0.55593  0.41329  1.0000
  C   C5        1.0  0.04437  0.53756  0.41084  1.0000
  C   C6        1.0  0.02672  0.51265  0.34602  1.0000
  H   H3        1.0  0.03151  0.54232  0.45866  1.0000
  H   H4        1.0  0.01010  0.47516  0.49323  1.0000
  N   N2        1.0  0.09577  0.57914  0.48308  1.0000
  O   O1        1.0  0.08866  0.60171  0.48217  1.0000
  O   O2        1.0  0.08892  0.56573  0.55952  1.0000
  C   C7        1.0  0.20823  0.65541  0.36199  1.0000
  C   C8        1.0  0.20886  0.67768  0.29608  1.0000
  N   N3        1.0  0.18409  0.66594  0.22886  1.0000
  O   O3        1.0  0.19593  0.66801  0.15144  1.0000
  O   O4        1.0  0.16880  0.68163  0.22967  1.0000
  C   C9        1.0  0.18658  0.56710  0.33407  1.0000
  C   C10       1.0  0.20377  0.60173  0.34218  1.0000
  C   C11       1.0  0.18772  0.62023  0.35315  1.0000
  C   C12       1.0  0.15276  0.60281  0.35280  1.0000
  C   C13       1.0  0.13398  0.56775  0.34671  1.0000
  C   C14       1.0  0.15171  0.55045  0.33824  1.0000
  H   H5        1.0  0.14086  0.61605  0.35758  1.0000
  H   H6        1.0  0.13910  0.52526  0.33464  1.0000
  C   C15       1.0  0.20606  0.55137  0.32631  1.0000
  C   C16       1.0  0.21037  0.53487  0.40072  1.0000
  N   N4        1.0  0.18887  0.52646  0.47562  1.0000
  O   O5        1.0  0.20397  0.54194  0.54532  1.0000
  O   O6        1.0  0.17473  0.49609  0.49186  1.0000
  C   C17       1.0  0.29360  0.54446  0.35281  1.0000
  C   C18       1.0  0.26260  0.54283  0.33532  1.0000
  C   C19       1.0  0.25777  0.55841  0.25879  1.0000
  C   C20       1.0  0.22902  0.56119  0.25449  1.0000
  H   H7        1.0  0.22678  0.57434  0.20238  1.0000
  H   H8        1.0  0.28928  0.51346  0.24381  1.0000
  N   N5        1.0  0.28059  0.57303  0.19200  1.0000
  H   H9        1.0  0.27693  0.58418  0.14164  1.0000
  C   C21       1.0  0.23559  0.71064  0.29437  1.0000
  C   C22       1.0  0.26308  0.72160  0.35272  1.0000
  C   C23       1.0  0.29244  0.75260  0.33521  1.0000
  H   H10       1.0  0.23638  0.72591  0.24376  1.0000
  H   H11       1.0  0.28441  0.71353  0.19310  1.0000
  H   H12       1.0  0.22906  0.61397  0.34038  1.0000
  C   C24       1.0  0.23775  0.52968  0.40249  1.0000
  H   H13       1.0  0.24138  0.51934  0.45908  1.0000
  H   H14       1.0  0.28786  0.58407  0.47422  1.0000
  C   C25       1.0  0.26201  0.69965  0.42111  1.0000
  C   C26       1.0  0.23398  0.66768  0.42661  1.0000
  H   H15       1.0  0.23406  0.65160  0.47343  1.0000
  H   H16       1.0  0.29018  0.77382  0.45898  1.0000
  N   N6        1.0  0.28755  0.70697  0.47842  1.0000
  H   H17       1.0  0.28642  0.69104  0.52259  1.0000
  C   C27       1.0  0.91976  0.46166  0.34443  1.0000
  C   C28       1.0  0.93880  0.48352  0.27392  1.0000
  C   C29       1.0  0.97378  0.49994  0.27728  1.0000
  H   H18       1.0  0.98685  0.51553  0.22553  1.0000
  H   H19       1.0  0.00703  0.46773  0.21507  1.0000
  N   N7        1.0  0.92254  0.48767  0.19873  1.0000
  O   O7        1.0  0.92930  0.47802  0.12693  1.0000
  O   O8        1.0  0.92995  0.51726  0.18922  1.0000
  C   C30       1.0  0.50880  0.54192  0.28074  1.0000
  C   C31       1.0  0.48989  0.55803  0.28271  1.0000
  H   H20       1.0  0.49439  0.57546  0.23452  1.0000
  C   C32       1.0  0.55358  0.46115  0.34441  1.0000
  C   C33       1.0  0.53171  0.45833  0.27392  1.0000
  C   C34       1.0  0.51529  0.47690  0.27731  1.0000
  H   H21       1.0  0.49970  0.47438  0.22555  1.0000
  N   N8        1.0  0.53285  0.55140  0.21714  1.0000
  H   H22       1.0  0.53722  0.56882  0.17405  1.0000
  H   H23       1.0  0.54755  0.54241  0.21524  1.0000
  N   N9        1.0  0.52756  0.43793  0.19871  1.0000
  O   O9        1.0  0.53721  0.45435  0.12693  1.0000
  O   O10       1.0  0.49797  0.41576  0.18921  1.0000
  C   C35       1.0  0.47331  0.96994  0.28070  1.0000
  C   C36       1.0  0.45720  0.93492  0.28267  1.0000
  H   H24       1.0  0.43976  0.92199  0.23449  1.0000
  C   C37       1.0  0.55407  0.09548  0.34443  1.0000
  C   C38       1.0  0.55690  0.07645  0.27394  1.0000
  C   C39       1.0  0.53834  0.04147  0.27730  1.0000
  H   H25       1.0  0.54087  0.02839  0.22555  1.0000
  N   N10       1.0  0.46383  0.98451  0.21711  1.0000
  H   H26       1.0  0.44646  0.97148  0.17390  1.0000
  H   H27       1.0  0.47288  0.00821  0.21507  1.0000
  N   N11       1.0  0.57731  0.09270  0.19874  1.0000
  O   O11       1.0  0.56090  0.08594  0.12694  1.0000
  O   O12       1.0  0.59949  0.08529  0.18924  1.0000
  C   C40       1.0  0.35977  0.55578  0.36203  1.0000
  C   C41       1.0  0.33751  0.53416  0.29610  1.0000
  C   C42       1.0  0.30456  0.52793  0.29442  1.0000
  H   H28       1.0  0.30168  0.57388  0.19323  1.0000
  N   N12       1.0  0.34925  0.52112  0.22886  1.0000
  O   O13       1.0  0.34718  0.53091  0.15145  1.0000
  O   O14       1.0  0.33356  0.49016  0.22964  1.0000
  C   C43       1.0  0.45943  0.80705  0.36193  1.0000
  C   C44       1.0  0.48103  0.80638  0.29601  1.0000
  C   C45       1.0  0.48717  0.77959  0.29423  1.0000
  C   C46       1.0  0.47067  0.75214  0.35270  1.0000
  C   C47       1.0  0.47229  0.72276  0.33527  1.0000
  C   C48       1.0  0.45669  0.70234  0.25873  1.0000
  C   C49       1.0  0.45390  0.67081  0.25443  1.0000
  H   H29       1.0  0.44079  0.65545  0.20221  1.0000
  H   H30       1.0  0.50171  0.77882  0.24375  1.0000
  N   N13       1.0  0.44212  0.71057  0.19188  1.0000
  H   H31       1.0  0.44119  0.73077  0.19325  1.0000
  H   H32       1.0  0.43089  0.69572  0.14164  1.0000
  N   N14       1.0  0.49411  0.83117  0.22884  1.0000
  O   O15       1.0  0.48432  0.81936  0.15140  1.0000
  O   O16       1.0  0.52508  0.84640  0.22964  1.0000
  C   C50       1.0  0.31285  0.75744  0.25866  1.0000
  C   C51       1.0  0.34437  0.78620  0.25435  1.0000
  H   H33       1.0  0.35977  0.78845  0.20222  1.0000
  N   N15       1.0  0.30465  0.73463  0.19187  1.0000
  H   H34       1.0  0.31945  0.73829  0.14150  1.0000
  C   C52       1.0  0.65865  0.45669  0.36391  1.0000
  C   C53       1.0  0.68083  0.47814  0.29755  1.0000
  C   C54       1.0  0.71369  0.48410  0.29522  1.0000
  C   C55       1.0  0.72465  0.46760  0.35362  1.0000
  C   C56       1.0  0.75549  0.46897  0.33556  1.0000
  C   C57       1.0  0.75990  0.45298  0.25928  1.0000
  C   C58       1.0  0.78856  0.45006  0.25437  1.0000
  H   H35       1.0  0.79054  0.43669  0.20242  1.0000
  H   H36       1.0  0.72891  0.49849  0.24440  1.0000
  N   N16       1.0  0.73678  0.43818  0.19327  1.0000
  H   H37       1.0  0.71572  0.43739  0.19510  1.0000
  H   H38       1.0  0.74012  0.42669  0.14320  1.0000
  N   N17       1.0  0.66907  0.49119  0.23044  1.0000
  O   O17       1.0  0.67083  0.48120  0.15305  1.0000
  O   O18       1.0  0.68495  0.52215  0.23076  1.0000
  C   C59       1.0  0.55853  0.20501  0.36407  1.0000
  C   C60       1.0  0.53710  0.20575  0.29767  1.0000
  C   C61       1.0  0.53104  0.23259  0.29537  1.0000
  C   C62       1.0  0.54757  0.26009  0.35366  1.0000
  C   C63       1.0  0.54620  0.28955  0.33546  1.0000
  C   C64       1.0  0.56218  0.30992  0.25916  1.0000
  C   C65       1.0  0.56510  0.34150  0.25419  1.0000
  H   H39       1.0  0.57852  0.35688  0.20234  1.0000
  H   H40       1.0  0.51674  0.23345  0.24437  1.0000
  N   N18       1.0  0.57702  0.30161  0.19325  1.0000
  H   H41       1.0  0.57773  0.28130  0.19498  1.0000
  H   H42       1.0  0.58843  0.31639  0.14302  1.0000
  N   N19       1.0  0.52409  0.18096  0.23048  1.0000
  O   O19       1.0  0.53410  0.19275  0.15313  1.0000
  O   O20       1.0  0.49313  0.16583  0.23072  1.0000
  C   C66       1.0  0.81024  0.35658  0.36400  1.0000
  C   C67       1.0  0.80949  0.33441  0.29759  1.0000
  C   C68       1.0  0.78259  0.30155  0.29525  1.0000
  C   C69       1.0  0.75513  0.29058  0.35368  1.0000
  C   C70       1.0  0.72566  0.25975  0.33560  1.0000
  C   C71       1.0  0.70526  0.25536  0.25934  1.0000
  C   C72       1.0  0.67368  0.22669  0.25442  1.0000
  H   H43       1.0  0.65832  0.22472  0.20248  1.0000
  H   H44       1.0  0.78175  0.28634  0.24439  1.0000
  N   N20       1.0  0.71357  0.27848  0.19336  1.0000
  H   H45       1.0  0.73384  0.29954  0.19520  1.0000
  H   H46       1.0  0.69875  0.27515  0.14330  1.0000
  N   N21       1.0  0.83429  0.34618  0.23045  1.0000
  O   O21       1.0  0.82252  0.34442  0.15308  1.0000
  O   O22       1.0  0.84937  0.33030  0.23070  1.0000
  C   C73       1.0  0.44807  0.62248  0.33396  1.0000
  C   C74       1.0  0.41343  0.60502  0.34213  1.0000
  C   C75       1.0  0.39496  0.57048  0.35317  1.0000
  C   C76       1.0  0.41240  0.55295  0.35283  1.0000
  C   C77       1.0  0.44746  0.56925  0.34673  1.0000
  C   C78       1.0  0.46473  0.60427  0.33820  1.0000
  H   H47       1.0  0.39917  0.52782  0.35766  1.0000
  H   H48       1.0  0.48993  0.61688  0.33457  1.0000
  H   H49       1.0  0.40118  0.61805  0.34031  1.0000
  C   C79       1.0  0.39273  0.82866  0.33387  1.0000
  C   C80       1.0  0.41018  0.81148  0.34200  1.0000
  C   C81       1.0  0.44472  0.82753  0.35309  1.0000
  C   C82       1.0  0.46225  0.86250  0.35277  1.0000
  C   C83       1.0  0.44596  0.88126  0.34668  1.0000
  C   C84       1.0  0.41094  0.86353  0.33816  1.0000
  H   H50       1.0  0.48738  0.87440  0.35760  1.0000
  H   H51       1.0  0.39834  0.87613  0.33457  1.0000
  H   H52       1.0  0.39714  0.78619  0.34016  1.0000
  C   C85       1.0  0.83148  0.44467  0.33291  1.0000
  C   C86       1.0  0.81442  0.41008  0.34251  1.0000
  C   C87       1.0  0.83061  0.39176  0.35485  1.0000
  C   C88       1.0  0.86557  0.40929  0.35442  1.0000
  C   C89       1.0  0.88410  0.44422  0.34466  1.0000
  C   C90       1.0  0.86637  0.46145  0.33579  1.0000
  H   H53       1.0  0.87769  0.39632  0.36147  1.0000
  H   H54       1.0  0.87897  0.48661  0.33086  1.0000
  H   H55       1.0  0.78912  0.39775  0.34112  1.0000
  C   C91       1.0  0.57056  0.38986  0.33277  1.0000
  C   C92       1.0  0.60515  0.40739  0.34235  1.0000
  C   C93       1.0  0.62347  0.44189  0.35475  1.0000
  C   C94       1.0  0.60594  0.45933  0.35436  1.0000
  C   C95       1.0  0.57101  0.44293  0.34461  1.0000
  C   C96       1.0  0.55378  0.40797  0.33573  1.0000
  H   H56       1.0  0.61892  0.48442  0.36144  1.0000
  H   H57       1.0  0.52862  0.39541  0.33082  1.0000
  H   H58       1.0  0.61748  0.39442  0.34093  1.0000
  C   C97       1.0  0.62537  0.18377  0.33293  1.0000
  C   C98       1.0  0.60783  0.20082  0.34260  1.0000
  C   C99       1.0  0.57333  0.18463  0.35492  1.0000
  C   C100      1.0  0.55589  0.14967  0.35444  1.0000
  C   C101      1.0  0.57230  0.13114  0.34467  1.0000
  C   C102      1.0  0.60726  0.14888  0.33580  1.0000
  H   H59       1.0  0.53080  0.13755  0.36148  1.0000
  H   H60       1.0  0.61982  0.13628  0.33086  1.0000
  H   H61       1.0  0.62080  0.22612  0.34125  1.0000
  C   C103      1.0  0.99109  0.49511  0.34843  1.0000
  C   C104      1.0  0.97217  0.47301  0.41909  1.0000
  C   C105      1.0  0.93716  0.45696  0.41571  1.0000
  H   H62       1.0  0.92388  0.44134  0.46722  1.0000
  N   N22       1.0  0.98643  0.46606  0.48937  1.0000
  H   H63       1.0  0.97318  0.45053  0.53637  1.0000
  C   C106      1.0  0.46509  0.55111  0.34797  1.0000
  C   C107      1.0  0.45931  0.52652  0.41334  1.0000
  C   C108      1.0  0.47768  0.50987  0.41088  1.0000
  C   C109      1.0  0.50259  0.51712  0.34608  1.0000
  C   C110      1.0  0.52013  0.49904  0.34847  1.0000
  C   C111      1.0  0.54223  0.50221  0.41911  1.0000
  C   C112      1.0  0.55828  0.48326  0.41570  1.0000
  H   H64       1.0  0.57391  0.48559  0.46719  1.0000
  H   H65       1.0  0.47293  0.49226  0.45874  1.0000
  N   N23       1.0  0.54920  0.52343  0.48937  1.0000
  H   H66       1.0  0.54001  0.53792  0.49344  1.0000
  H   H67       1.0  0.56465  0.52563  0.53653  1.0000
  N   N24       1.0  0.43610  0.51968  0.48315  1.0000
  O   O23       1.0  0.41353  0.49000  0.48227  1.0000
  O   O24       1.0  0.44952  0.52625  0.55958  1.0000
  C   C113      1.0  0.46411  0.91704  0.34793  1.0000
  C   C114      1.0  0.48870  0.93585  0.41330  1.0000
  C   C115      1.0  0.50536  0.97087  0.41086  1.0000
  C   C116      1.0  0.49811  0.98853  0.34603  1.0000
  C   C117      1.0  0.51620  0.02415  0.34844  1.0000
  C   C118      1.0  0.51301  0.04307  0.41910  1.0000
  C   C119      1.0  0.53197  0.07808  0.41572  1.0000
  H   H68       1.0  0.52963  0.09136  0.46722  1.0000
  H   H69       1.0  0.52297  0.98372  0.45870  1.0000
  N   N25       1.0  0.49181  0.02881  0.48937  1.0000
  H   H70       1.0  0.47723  0.00514  0.49323  1.0000
  H   H71       1.0  0.48952  0.04206  0.53637  1.0000
  N   N26       1.0  0.49554  0.91946  0.48311  1.0000
  O   O25       1.0  0.52522  0.92658  0.48222  1.0000
  O   O26       1.0  0.48897  0.92632  0.55954  1.0000
  C   C120      1.0  0.31555  0.56532  0.42121  1.0000
  C   C121      1.0  0.34752  0.56926  0.42669  1.0000
  H   H72       1.0  0.36361  0.58542  0.47351  1.0000
  N   N27       1.0  0.30824  0.58355  0.47854  1.0000
  H   H73       1.0  0.32417  0.59835  0.52271  1.0000
  C   C122      1.0  0.44983  0.75325  0.42113  1.0000
  C   C123      1.0  0.44588  0.78128  0.42649  1.0000
  H   H74       1.0  0.42977  0.78126  0.47337  1.0000
  C   C124      1.0  0.46376  0.65769  0.32617  1.0000
  C   C125      1.0  0.48028  0.67849  0.40059  1.0000
  C   C126      1.0  0.48542  0.71103  0.40243  1.0000
  H   H75       1.0  0.49583  0.72506  0.45889  1.0000
  N   N28       1.0  0.43159  0.72773  0.47848  1.0000
  H   H76       1.0  0.41690  0.72893  0.52291  1.0000
  H   H77       1.0  0.43116  0.70687  0.47454  1.0000
  N   N29       1.0  0.48876  0.66541  0.47541  1.0000
  O   O27       1.0  0.47330  0.66501  0.54519  1.0000
  O   O28       1.0  0.51913  0.68168  0.49153  1.0000
  C   C127      1.0  0.35752  0.80916  0.32616  1.0000
  C   C128      1.0  0.33671  0.80484  0.40059  1.0000
  C   C129      1.0  0.30415  0.77746  0.40238  1.0000
  H   H78       1.0  0.30845  0.72735  0.47408  1.0000
  N   N30       1.0  0.34981  0.82634  0.47549  1.0000
  O   O29       1.0  0.35021  0.81125  0.54518  1.0000
  O   O30       1.0  0.33356  0.84047  0.49175  1.0000
  C   C130      1.0  0.70281  0.44694  0.42251  1.0000
  C   C131      1.0  0.67089  0.44311  0.42831  1.0000
  H   H79       1.0  0.65482  0.42704  0.47528  1.0000
  C   C132      1.0  0.81190  0.46029  0.32527  1.0000
  C   C133      1.0  0.80802  0.47718  0.39943  1.0000
  C   C134      1.0  0.78065  0.48235  0.40186  1.0000
  H   H80       1.0  0.77733  0.49305  0.45816  1.0000
  N   N31       1.0  0.71015  0.42875  0.47987  1.0000
  H   H81       1.0  0.69435  0.41419  0.52466  1.0000
  H   H82       1.0  0.73058  0.42831  0.47578  1.0000
  N   N32       1.0  0.82996  0.48601  0.47345  1.0000
  O   O31       1.0  0.81527  0.47092  0.54402  1.0000
  O   O32       1.0  0.84418  0.51647  0.48842  1.0000
  C   C135      1.0  0.56825  0.25894  0.42253  1.0000
  C   C136      1.0  0.57205  0.23083  0.42849  1.0000
  H   H83       1.0  0.58816  0.23089  0.47544  1.0000
  C   C137      1.0  0.55494  0.35466  0.32514  1.0000
  C   C138      1.0  0.53805  0.33390  0.39932  1.0000
  C   C139      1.0  0.53282  0.30133  0.40175  1.0000
  H   H84       1.0  0.52219  0.28737  0.45818  1.0000
  N   N33       1.0  0.58643  0.28449  0.47985  1.0000
  H   H85       1.0  0.60109  0.28331  0.52442  1.0000
  H   H86       1.0  0.58697  0.30539  0.47538  1.0000
  N   N34       1.0  0.52928  0.34704  0.47339  1.0000
  O   O33       1.0  0.54439  0.34742  0.54391  1.0000
  O   O34       1.0  0.49883  0.33085  0.48846  1.0000
  C   C140      1.0  0.75632  0.31241  0.42261  1.0000
  C   C141      1.0  0.78443  0.34433  0.42843  1.0000
  H   H87       1.0  0.78443  0.36040  0.47544  1.0000
  C   C142      1.0  0.66057  0.20335  0.32531  1.0000
  C   C143      1.0  0.68133  0.20721  0.39945  1.0000
  C   C144      1.0  0.71388  0.23459  0.40189  1.0000
  H   H88       1.0  0.72790  0.23790  0.45818  1.0000
  N   N35       1.0  0.73080  0.30507  0.48001  1.0000
  H   H89       1.0  0.73203  0.32088  0.52475  1.0000
  H   H90       1.0  0.70992  0.28467  0.47581  1.0000
  N   N36       1.0  0.66822  0.18527  0.47346  1.0000
  O   O35       1.0  0.66783  0.19995  0.54404  1.0000
  O   O36       1.0  0.68446  0.17104  0.48839  1.0000
