data_image0
_chemical_formula_structural       C8HC7HCH4C4O3C3H2C2H3NHC3H2C2H3NHC3H2C2H3NHC3H2C2H3NHC3H2C2H3NHC3H2C2H3NHOC8HC7HCH4C4O4C8HC7HCH4C4O4C3NC2NC2HNHC3NC2NC2HNHC3NC2NC2HNHC3NC2NC2HNHC3NC2NC2HNHC3NC2NC2HNH
_chemical_formula_sum              "C132 H66 O12 N24"
_cell_length_a       29.8697
_cell_length_b       29.8698
_cell_length_c       15.0895
_cell_angle_alpha    89.9992
_cell_angle_beta     90.0008
_cell_angle_gamma    120

_space_group_name_H-M_alt    "P 1"
_space_group_IT_number       1

loop_
  _space_group_symop_operation_xyz
  'x, y, z'

loop_
  _atom_site_type_symbol
  _atom_site_label
  _atom_site_symmetry_multiplicity
  _atom_site_fract_x
  _atom_site_fract_y
  _atom_site_fract_z
  _atom_site_occupancy
  C   C1        1.0  0.02316  0.53078  0.32414  1.0000
  C   C2        1.0  0.97390  0.48455  0.32456  1.0000
  C   C3        1.0  0.97069  0.43564  0.33470  1.0000
  C   C4        1.0  0.01669  0.43356  0.33708  1.0000
  C   C5        1.0  0.06588  0.47799  0.33096  1.0000
  C   C6        1.0  0.06906  0.52717  0.32544  1.0000
  C   C7        1.0  0.92941  0.48954  0.31949  1.0000
  C   C8        1.0  0.11675  0.57349  0.31563  1.0000
  H   H1        1.0  0.01413  0.39818  0.34377  1.0000
  C   C9        1.0  0.02647  0.58045  0.32415  1.0000
  C   C10       1.0  0.98057  0.58405  0.32537  1.0000
  C   C11       1.0  0.98374  0.63322  0.33093  1.0000
  C   C12       1.0  0.03293  0.67765  0.33714  1.0000
  C   C13       1.0  0.07893  0.67557  0.33481  1.0000
  C   C14       1.0  0.07573  0.62667  0.32465  1.0000
  C   C15       1.0  0.93288  0.53773  0.31545  1.0000
  H   H2        1.0  0.03549  0.71304  0.34380  1.0000
  C   C16       1.0  0.12022  0.62168  0.31967  1.0000
  H   H3        1.0  0.89899  0.53747  0.30650  1.0000
  H   H4        1.0  0.89305  0.45840  0.31890  1.0000
  H   H5        1.0  0.15659  0.65282  0.31918  1.0000
  H   H6        1.0  0.15064  0.57376  0.30665  1.0000
  C   C17       1.0  0.10910  0.47053  0.33064  1.0000
  C   C18       1.0  0.92402  0.38925  0.35146  1.0000
  C   C19       1.0  0.94051  0.64065  0.33047  1.0000
  C   C20       1.0  0.12559  0.72201  0.35140  1.0000
  O   O1        1.0  0.10355  0.42539  0.29919  1.0000
  O   O2        1.0  0.92549  0.35450  0.40796  1.0000
  O   O3        1.0  0.12418  0.75671  0.40807  1.0000
  C   C21       1.0  0.29880  0.51841  0.31659  1.0000
  C   C22       1.0  0.26195  0.50672  0.24921  1.0000
  C   C23       1.0  0.21325  0.49996  0.26991  1.0000
  H   H7        1.0  0.18715  0.48994  0.21941  1.0000
  H   H8        1.0  0.26829  0.49785  0.18663  1.0000
  C   C24       1.0  0.34892  0.59554  0.03109  1.0000
  C   C25       1.0  0.30079  0.59111  0.05099  1.0000
  H   H9        1.0  0.37740  0.60899  0.07808  1.0000
  H   H10       1.0  0.29446  0.60141  0.11234  1.0000
  H   H11       1.0  0.22651  0.56945  0.00155  1.0000
  N   N1        1.0  0.34164  0.51523  0.29802  1.0000
  H   H12       1.0  0.35427  0.52114  0.23695  1.0000
  C   C26       1.0  0.56188  0.86651  0.31642  1.0000
  C   C27       1.0  0.57376  0.84141  0.24921  1.0000
  C   C28       1.0  0.58064  0.79957  0.27010  1.0000
  H   H13       1.0  0.59073  0.78350  0.21968  1.0000
  H   H14       1.0  0.58260  0.85656  0.18659  1.0000
  C   C29       1.0  0.48459  0.83965  0.03080  1.0000
  C   C30       1.0  0.48918  0.79606  0.05091  1.0000
  H   H15       1.0  0.47106  0.85466  0.07767  1.0000
  H   H16       1.0  0.47891  0.77950  0.11231  1.0000
  H   H17       1.0  0.51107  0.74356  0.00176  1.0000
  N   N2        1.0  0.56472  0.91235  0.29767  1.0000
  H   H18       1.0  0.55927  0.91932  0.23650  1.0000
  C   C31       1.0  0.21354  0.78178  0.31653  1.0000
  C   C32       1.0  0.23868  0.81868  0.24920  1.0000
  C   C33       1.0  0.28059  0.86738  0.26993  1.0000
  H   H19       1.0  0.29665  0.89350  0.21945  1.0000
  H   H20       1.0  0.22348  0.81234  0.18661  1.0000
  C   C34       1.0  0.24061  0.73162  0.03098  1.0000
  C   C35       1.0  0.28427  0.77977  0.05092  1.0000
  H   H21       1.0  0.22560  0.70313  0.07794  1.0000
  H   H22       1.0  0.30090  0.78610  0.11228  1.0000
  H   H23       1.0  0.33683  0.85408  0.00153  1.0000
  N   N3        1.0  0.16759  0.73888  0.29787  1.0000
  H   H24       1.0  0.16088  0.72631  0.23677  1.0000
  C   C36       1.0  0.75072  0.59251  0.31618  1.0000
  C   C37       1.0  0.78766  0.60438  0.24890  1.0000
  C   C38       1.0  0.83639  0.61127  0.26971  1.0000
  H   H25       1.0  0.86255  0.62138  0.21927  1.0000
  H   H26       1.0  0.78132  0.61323  0.18631  1.0000
  C   C39       1.0  0.70051  0.51530  0.03064  1.0000
  C   C40       1.0  0.74869  0.51988  0.05065  1.0000
  H   H27       1.0  0.67201  0.50180  0.07757  1.0000
  H   H28       1.0  0.75503  0.50963  0.11203  1.0000
  H   H29       1.0  0.82305  0.54174  0.00135  1.0000
  N   N4        1.0  0.70773  0.59538  0.29752  1.0000
  H   H30       1.0  0.69525  0.58988  0.23638  1.0000
  C   C41       1.0  0.48780  0.24447  0.31667  1.0000
  C   C42       1.0  0.47587  0.26949  0.24938  1.0000
  C   C43       1.0  0.46891  0.31130  0.27016  1.0000
  H   H31       1.0  0.45876  0.32729  0.21969  1.0000
  H   H32       1.0  0.46703  0.25429  0.18679  1.0000
  C   C44       1.0  0.56505  0.27166  0.03112  1.0000
  C   C45       1.0  0.56039  0.31522  0.05110  1.0000
  H   H33       1.0  0.57860  0.25671  0.07806  1.0000
  H   H34       1.0  0.57063  0.33183  0.11248  1.0000
  H   H35       1.0  0.53842  0.36762  0.00176  1.0000
  N   N5        1.0  0.48497  0.19862  0.29804  1.0000
  H   H36       1.0  0.49069  0.19183  0.23692  1.0000
  C   C46       1.0  0.83607  0.32933  0.31673  1.0000
  C   C47       1.0  0.81093  0.29239  0.24947  1.0000
  C   C48       1.0  0.76908  0.24367  0.27030  1.0000
  H   H37       1.0  0.75301  0.21752  0.21984  1.0000
  H   H38       1.0  0.82609  0.29871  0.18685  1.0000
  C   C49       1.0  0.80912  0.37963  0.03114  1.0000
  C   C50       1.0  0.76551  0.33146  0.05118  1.0000
  H   H39       1.0  0.82412  0.40815  0.07805  1.0000
  H   H40       1.0  0.74891  0.32515  0.11256  1.0000
  H   H41       1.0  0.71300  0.25710  0.00195  1.0000
  N   N6        1.0  0.88200  0.37224  0.29797  1.0000
  H   H42       1.0  0.88866  0.38478  0.23684  1.0000
  O   O4        1.0  0.94609  0.68588  0.29941  1.0000
  C   C51       1.0  0.54959  0.57860  0.32450  1.0000
  C   C52       1.0  0.59579  0.57550  0.32471  1.0000
  C   C53       1.0  0.64474  0.62118  0.33468  1.0000
  C   C54       1.0  0.64687  0.66928  0.33724  1.0000
  C   C55       1.0  0.60247  0.67412  0.33136  1.0000
  C   C56       1.0  0.55326  0.62814  0.32592  1.0000
  C   C57       1.0  0.59071  0.52598  0.31975  1.0000
  C   C58       1.0  0.50696  0.62956  0.31624  1.0000
  H   H43       1.0  0.68228  0.70209  0.34377  1.0000
  C   C59       1.0  0.49989  0.53228  0.32453  1.0000
  C   C60       1.0  0.49621  0.48274  0.32571  1.0000
  C   C61       1.0  0.44702  0.43676  0.33125  1.0000
  C   C62       1.0  0.40262  0.44158  0.33742  1.0000
  C   C63       1.0  0.40476  0.48969  0.33508  1.0000
  C   C64       1.0  0.45370  0.53537  0.32505  1.0000
  C   C65       1.0  0.54249  0.48130  0.31582  1.0000
  H   H44       1.0  0.36721  0.40877  0.34402  1.0000
  C   C66       1.0  0.45875  0.58488  0.32022  1.0000
  H   H45       1.0  0.54271  0.44765  0.30685  1.0000
  H   H46       1.0  0.62178  0.52067  0.31925  1.0000
  H   H47       1.0  0.42765  0.59016  0.31987  1.0000
  H   H48       1.0  0.50673  0.66321  0.30735  1.0000
  C   C67       1.0  0.61000  0.72483  0.33107  1.0000
  C   C68       1.0  0.69123  0.62098  0.35076  1.0000
  C   C69       1.0  0.43954  0.38608  0.33079  1.0000
  C   C70       1.0  0.35831  0.48990  0.35148  1.0000
  O   O5        1.0  0.65515  0.76438  0.29956  1.0000
  O   O6        1.0  0.72627  0.65721  0.40692  1.0000
  O   O7        1.0  0.39431  0.34646  0.29969  1.0000
  O   O8        1.0  0.32345  0.45383  0.40803  1.0000
  C   C71       1.0  0.50174  0.05726  0.32445  1.0000
  C   C72       1.0  0.50487  0.10656  0.32502  1.0000
  C   C73       1.0  0.45921  0.10986  0.33504  1.0000
  C   C74       1.0  0.41108  0.06391  0.33723  1.0000
  C   C75       1.0  0.40623  0.01468  0.33104  1.0000
  C   C76       1.0  0.45218  0.01141  0.32559  1.0000
  C   C77       1.0  0.55442  0.15100  0.32030  1.0000
  C   C78       1.0  0.45071  0.96369  0.31564  1.0000
  H   H49       1.0  0.37828  0.06653  0.34376  1.0000
  C   C79       1.0  0.54803  0.05383  0.32446  1.0000
  C   C80       1.0  0.59760  0.09967  0.32592  1.0000
  C   C81       1.0  0.64354  0.09639  0.33134  1.0000
  C   C82       1.0  0.63867  0.04714  0.33723  1.0000
  C   C83       1.0  0.59054  0.00119  0.33477  1.0000
  C   C84       1.0  0.54490  0.00452  0.32468  1.0000
  C   C85       1.0  0.59907  0.14742  0.31629  1.0000
  H   H50       1.0  0.67146  0.04451  0.34374  1.0000
  C   C86       1.0  0.49536  0.96010  0.31963  1.0000
  H   H51       1.0  0.63274  0.18130  0.30752  1.0000
  H   H52       1.0  0.55974  0.18739  0.32004  1.0000
  H   H53       1.0  0.49003  0.92371  0.31910  1.0000
  H   H54       1.0  0.41704  0.92983  0.30667  1.0000
  C   C87       1.0  0.35554  0.97148  0.33047  1.0000
  C   C88       1.0  0.45943  0.15655  0.35133  1.0000
  C   C89       1.0  0.69425  0.13956  0.33100  1.0000
  C   C90       1.0  0.59023  0.95445  0.35093  1.0000
  O   O9        1.0  0.31596  0.97718  0.29945  1.0000
  O   O10       1.0  0.42331  0.15526  0.40785  1.0000
  O   O11       1.0  0.73384  0.13392  0.29981  1.0000
  O   O12       1.0  0.62651  0.95575  0.40712  1.0000
  C   C91       1.0  0.20092  0.50838  0.35684  1.0000
  C   C92       1.0  0.24065  0.52758  0.42151  1.0000
  C   C93       1.0  0.28890  0.53128  0.40208  1.0000
  N   N7        1.0  0.32577  0.54932  0.46654  1.0000
  C   C94       1.0  0.31867  0.56312  0.54870  1.0000
  C   C95       1.0  0.27022  0.55856  0.56874  1.0000
  N   N8        1.0  0.23348  0.54086  0.50454  1.0000
  C   C96       1.0  0.35795  0.58158  0.61329  1.0000
  C   C97       1.0  0.26135  0.57252  0.65334  1.0000
  H   H55       1.0  0.39300  0.58495  0.59915  1.0000
  N   N9        1.0  0.15331  0.50164  0.37590  1.0000
  H   H56       1.0  0.15008  0.52002  0.42676  1.0000
  C   C98       1.0  0.57219  0.77885  0.35707  1.0000
  C   C99       1.0  0.55286  0.79935  0.42160  1.0000
  C   C100      1.0  0.54900  0.84379  0.40195  1.0000
  N   N10       1.0  0.53085  0.86259  0.46627  1.0000
  C   C101      1.0  0.51708  0.84176  0.54848  1.0000
  C   C102      1.0  0.52178  0.79798  0.56873  1.0000
  N   N11       1.0  0.53960  0.77896  0.50467  1.0000
  C   C103      1.0  0.49850  0.86255  0.61292  1.0000
  C   C104      1.0  0.50787  0.77524  0.65340  1.0000
  H   H57       1.0  0.49501  0.89415  0.59864  1.0000
  N   N12       1.0  0.57895  0.73801  0.37629  1.0000
  H   H58       1.0  0.56056  0.71643  0.42716  1.0000
  C   C105      1.0  0.30136  0.87970  0.35685  1.0000
  C   C106      1.0  0.28084  0.83995  0.42150  1.0000
  C   C107      1.0  0.23631  0.79169  0.40203  1.0000
  N   N13       1.0  0.21752  0.75480  0.46646  1.0000
  C   C108      1.0  0.23842  0.76189  0.54863  1.0000
  C   C109      1.0  0.28227  0.81035  0.56870  1.0000
  N   N14       1.0  0.30129  0.84712  0.50452  1.0000
  C   C110      1.0  0.21763  0.72259  0.61318  1.0000
  C   C111      1.0  0.30510  0.81922  0.65330  1.0000
  H   H59       1.0  0.18597  0.68752  0.59901  1.0000
  N   N15       1.0  0.34226  0.92729  0.37593  1.0000
  H   H60       1.0  0.36386  0.93048  0.42678  1.0000
  C   C112      1.0  0.84869  0.60281  0.35665  1.0000
  C   C113      1.0  0.80891  0.58349  0.42124  1.0000
  C   C114      1.0  0.76061  0.57964  0.40169  1.0000
  N   N16       1.0  0.72369  0.56151  0.46607  1.0000
  C   C115      1.0  0.73080  0.54775  0.54828  1.0000
  C   C116      1.0  0.77929  0.55245  0.56842  1.0000
  N   N17       1.0  0.81608  0.57024  0.50429  1.0000
  C   C117      1.0  0.69147  0.52920  0.61279  1.0000
  C   C118      1.0  0.78817  0.53855  0.65307  1.0000
  H   H61       1.0  0.65639  0.52573  0.59858  1.0000
  N   N18       1.0  0.89631  0.60960  0.37579  1.0000
  H   H62       1.0  0.89953  0.59120  0.42662  1.0000
  C   C119      1.0  0.47735  0.33207  0.35707  1.0000
  C   C120      1.0  0.49671  0.31166  0.42168  1.0000
  C   C121      1.0  0.50064  0.26724  0.40216  1.0000
  N   N19       1.0  0.51882  0.24852  0.46656  1.0000
  C   C122      1.0  0.53257  0.26941  0.54875  1.0000
  C   C123      1.0  0.52779  0.31316  0.56886  1.0000
  N   N20       1.0  0.50994  0.33210  0.50472  1.0000
  C   C124      1.0  0.55118  0.24870  0.61328  1.0000
  C   C125      1.0  0.54167  0.33596  0.65350  1.0000
  H   H63       1.0  0.55471  0.21712  0.59909  1.0000
  N   N21       1.0  0.47054  0.37289  0.37619  1.0000
  H   H64       1.0  0.48894  0.39452  0.42701  1.0000
  C   C126      1.0  0.74836  0.23136  0.35726  1.0000
  C   C127      1.0  0.76888  0.27115  0.42184  1.0000
  C   C128      1.0  0.81335  0.31944  0.40227  1.0000
  N   N22       1.0  0.83214  0.35637  0.46663  1.0000
  C   C129      1.0  0.81128  0.34929  0.54883  1.0000
  C   C130      1.0  0.76748  0.30081  0.56900  1.0000
  N   N23       1.0  0.74847  0.26401  0.50490  1.0000
  C   C131      1.0  0.83206  0.38864  0.61330  1.0000
  C   C132      1.0  0.74470  0.29196  0.65364  1.0000
  H   H65       1.0  0.86368  0.42371  0.59906  1.0000
  N   N24       1.0  0.70751  0.18376  0.37642  1.0000
  H   H66       1.0  0.68593  0.18055  0.42730  1.0000
