data_image0
_chemical_formula_structural       C11H6C6H3C6N2C11H6C6H3C6N2C2HC6H3CHC2HC6H3CHC2HC6H3CHC7H6NC7H6NC2NCNC2H3CH3CHC2NCNC2H3CH3CHC2NCNC2H3CH3CH
_chemical_formula_sum              "C108 H66 N12"
_cell_length_a       52.4446
_cell_length_b       52.4557
_cell_length_c       14.9395
_cell_angle_alpha    90
_cell_angle_beta     90
_cell_angle_gamma    119.985

_space_group_name_H-M_alt    "P 1"
_space_group_IT_number       1

loop_
  _space_group_symop_operation_xyz
  'x, y, z'

loop_
  _atom_site_type_symbol
  _atom_site_label
  _atom_site_symmetry_multiplicity
  _atom_site_fract_x
  _atom_site_fract_y
  _atom_site_fract_z
  _atom_site_occupancy
  C   C1        1.0  0.22137  0.61256  0.33503  1.0000
  C   C2        1.0  0.39270  0.61001  0.33361  1.0000
  C   C3        1.0  0.39500  0.78363  0.33366  1.0000
  C   C4        1.0  0.42487  0.57949  0.33985  1.0000
  C   C5        1.0  0.39562  0.56548  0.30788  1.0000
  C   C6        1.0  0.37962  0.58048  0.30478  1.0000
  C   C7        1.0  0.17425  0.61147  0.32636  1.0000
  C   C8        1.0  0.20525  0.62731  0.32400  1.0000
  C   C9        1.0  0.42553  0.84630  0.33980  1.0000
  C   C10       1.0  0.43972  0.83104  0.30947  1.0000
  C   C11       1.0  0.42472  0.80005  0.30644  1.0000
  H   H1        1.0  0.38564  0.54406  0.28669  1.0000
  H   H2        1.0  0.35841  0.56959  0.28138  1.0000
  H   H3        1.0  0.21582  0.64963  0.31407  1.0000
  H   H4        1.0  0.16304  0.62265  0.31820  1.0000
  H   H5        1.0  0.46127  0.84246  0.28948  1.0000
  H   H6        1.0  0.43574  0.78972  0.28429  1.0000
  C   C12       1.0  0.35259  0.69982  0.32971  1.0000
  C   C13       1.0  0.32148  0.68483  0.33026  1.0000
  C   C14       1.0  0.30519  0.65374  0.33048  1.0000
  C   C15       1.0  0.32019  0.63763  0.33021  1.0000
  C   C16       1.0  0.35129  0.65243  0.32966  1.0000
  C   C17       1.0  0.36740  0.68353  0.32947  1.0000
  H   H7        1.0  0.30841  0.61501  0.33062  1.0000
  H   H8        1.0  0.31064  0.69661  0.33073  1.0000
  H   H9        1.0  0.39002  0.69437  0.32938  1.0000
  C   C18       1.0  0.38092  0.75490  0.33138  1.0000
  C   C19       1.0  0.36754  0.72857  0.33021  1.0000
  C   C20       1.0  0.37804  0.62409  0.33129  1.0000
  C   C21       1.0  0.36509  0.63747  0.33012  1.0000
  C   C22       1.0  0.27643  0.63995  0.33156  1.0000
  C   C23       1.0  0.25011  0.62706  0.33297  1.0000
  N   N1        1.0  0.43842  0.56368  0.34072  1.0000
  N   N2        1.0  0.44133  0.87565  0.34068  1.0000
  C   C24       1.0  0.78458  0.39055  0.33173  1.0000
  C   C25       1.0  0.61443  0.39501  0.32852  1.0000
  C   C26       1.0  0.60982  0.22022  0.32879  1.0000
  C   C27       1.0  0.58334  0.42657  0.32974  1.0000
  C   C28       1.0  0.61400  0.44127  0.31450  1.0000
  C   C29       1.0  0.62944  0.42569  0.31322  1.0000
  C   C30       1.0  0.83144  0.39098  0.33340  1.0000
  C   C31       1.0  0.80043  0.37531  0.33221  1.0000
  C   C32       1.0  0.57833  0.15760  0.33015  1.0000
  C   C33       1.0  0.56353  0.17352  0.31609  1.0000
  C   C34       1.0  0.57907  0.20453  0.31478  1.0000
  H   H10       1.0  0.62534  0.46352  0.30363  1.0000
  H   H11       1.0  0.65167  0.43702  0.30150  1.0000
  H   H12       1.0  0.78966  0.35276  0.33199  1.0000
  H   H13       1.0  0.84247  0.37946  0.33395  1.0000
  H   H14       1.0  0.54123  0.16259  0.30615  1.0000
  H   H15       1.0  0.56766  0.21540  0.30396  1.0000
  C   C35       1.0  0.65316  0.30403  0.32855  1.0000
  C   C36       1.0  0.68426  0.31880  0.32932  1.0000
  C   C37       1.0  0.70075  0.34988  0.32964  1.0000
  C   C38       1.0  0.68597  0.36621  0.32922  1.0000
  C   C39       1.0  0.65488  0.35162  0.32844  1.0000
  C   C40       1.0  0.63856  0.32053  0.32814  1.0000
  H   H16       1.0  0.69790  0.38882  0.32948  1.0000
  H   H17       1.0  0.69494  0.30687  0.32966  1.0000
  H   H18       1.0  0.61595  0.30985  0.32764  1.0000
  C   C41       1.0  0.62435  0.24897  0.32839  1.0000
  C   C42       1.0  0.63800  0.27529  0.32835  1.0000
  C   C43       1.0  0.62863  0.38045  0.32815  1.0000
  C   C44       1.0  0.64129  0.36678  0.32817  1.0000
  C   C45       1.0  0.72950  0.36348  0.33037  1.0000
  C   C46       1.0  0.75583  0.37620  0.33102  1.0000
  N   N3        1.0  0.57016  0.44266  0.33227  1.0000
  N   N4        1.0  0.56228  0.12833  0.33268  1.0000
  C   C47       1.0  0.48454  0.51735  0.26771  1.0000
  C   C48       1.0  0.47271  0.53614  0.27858  1.0000
  H   H19       1.0  0.46437  0.54128  0.22381  1.0000
  C   C49       1.0  0.50952  0.49302  0.33501  1.0000
  C   C50       1.0  0.53402  0.45600  0.32173  1.0000
  C   C51       1.0  0.52152  0.46167  0.24568  1.0000
  C   C52       1.0  0.50935  0.48030  0.25102  1.0000
  C   C53       1.0  0.49682  0.48632  0.17601  1.0000
  C   C54       1.0  0.48464  0.50478  0.18420  1.0000
  H   H20       1.0  0.49651  0.47735  0.11487  1.0000
  H   H21       1.0  0.47576  0.50889  0.12881  1.0000
  H   H22       1.0  0.52105  0.45194  0.18565  1.0000
  C   C55       1.0  0.54348  0.43574  0.31430  1.0000
  H   H23       1.0  0.52924  0.41568  0.29204  1.0000
  C   C56       1.0  0.48761  0.96807  0.26777  1.0000
  C   C57       1.0  0.46884  0.93745  0.27866  1.0000
  H   H24       1.0  0.46368  0.92398  0.22388  1.0000
  C   C58       1.0  0.51193  0.01737  0.33505  1.0000
  C   C59       1.0  0.54893  0.07885  0.32175  1.0000
  C   C60       1.0  0.54323  0.06070  0.24567  1.0000
  C   C61       1.0  0.52461  0.02990  0.25104  1.0000
  C   C62       1.0  0.51858  0.01136  0.17602  1.0000
  C   C63       1.0  0.50014  0.98072  0.18423  1.0000
  H   H25       1.0  0.52753  0.02001  0.11486  1.0000
  H   H26       1.0  0.49603  0.96774  0.12885  1.0000
  H   H27       1.0  0.55294  0.06994  0.18562  1.0000
  C   C64       1.0  0.56917  0.10858  0.31422  1.0000
  H   H28       1.0  0.58918  0.11441  0.29148  1.0000
  C   C65       1.0  0.03707  0.52056  0.26787  1.0000
  C   C66       1.0  0.06770  0.53251  0.27890  1.0000
  H   H29       1.0  0.08120  0.54088  0.22417  1.0000
  C   C67       1.0  0.98774  0.49554  0.33494  1.0000
  C   C68       1.0  0.92621  0.47103  0.32121  1.0000
  C   C69       1.0  0.94444  0.48341  0.24522  1.0000
  C   C70       1.0  0.97524  0.49562  0.25080  1.0000
  C   C71       1.0  0.99381  0.50811  0.17582  1.0000
  C   C72       1.0  0.02445  0.52038  0.18422  1.0000
  H   H30       1.0  0.98517  0.50835  0.11458  1.0000
  H   H31       1.0  0.03746  0.52925  0.12887  1.0000
  H   H32       1.0  0.93525  0.48381  0.18499  1.0000
  C   C73       1.0  0.89646  0.46154  0.31303  1.0000
  H   H33       1.0  0.89072  0.47522  0.28557  1.0000
  C   C74       1.0  0.42196  0.62426  0.36533  1.0000
  C   C75       1.0  0.43784  0.60916  0.36831  1.0000
  C   C76       1.0  0.20602  0.58179  0.34811  1.0000
  C   C77       1.0  0.17504  0.56608  0.35058  1.0000
  C   C78       1.0  0.15871  0.58074  0.34050  1.0000
  C   C79       1.0  0.38057  0.79866  0.36365  1.0000
  C   C80       1.0  0.39567  0.82962  0.36657  1.0000
  H   H34       1.0  0.45899  0.62019  0.39141  1.0000
  H   H35       1.0  0.21713  0.57046  0.35570  1.0000
  H   H36       1.0  0.16458  0.54378  0.35902  1.0000
  H   H37       1.0  0.35899  0.78732  0.38365  1.0000
  H   H38       1.0  0.38450  0.83977  0.38829  1.0000
  H   H39       1.0  0.43205  0.64571  0.38658  1.0000
  N   N5        1.0  0.12938  0.56728  0.34125  1.0000
  C   C81       1.0  0.58385  0.38022  0.34529  1.0000
  C   C82       1.0  0.56852  0.39588  0.34614  1.0000
  C   C83       1.0  0.80019  0.42162  0.33277  1.0000
  C   C84       1.0  0.83117  0.43716  0.33371  1.0000
  C   C85       1.0  0.84724  0.42205  0.33309  1.0000
  C   C86       1.0  0.62472  0.20447  0.34430  1.0000
  C   C87       1.0  0.60910  0.17349  0.34521  1.0000
  H   H40       1.0  0.54648  0.38472  0.36004  1.0000
  H   H41       1.0  0.78927  0.43326  0.33331  1.0000
  H   H42       1.0  0.84186  0.45964  0.33595  1.0000
  H   H43       1.0  0.64698  0.21528  0.35563  1.0000
  H   H44       1.0  0.62036  0.16264  0.35820  1.0000
  H   H45       1.0  0.57244  0.35802  0.35756  1.0000
  N   N6        1.0  0.87654  0.43542  0.33584  1.0000
  C   C88       1.0  0.47298  0.54858  0.36298  1.0000
  C   C89       1.0  0.48536  0.54141  0.43692  1.0000
  N   N7        1.0  0.49667  0.52338  0.42335  1.0000
  C   C90       1.0  0.49702  0.51131  0.34336  1.0000
  N   N8        1.0  0.52167  0.48710  0.40661  1.0000
  C   C91       1.0  0.53386  0.46950  0.40414  1.0000
  C   C92       1.0  0.48701  0.55170  0.53026  1.0000
  H   H46       1.0  0.47636  0.56481  0.53948  1.0000
  H   H47       1.0  0.51004  0.56502  0.55007  1.0000
  H   H48       1.0  0.47624  0.53273  0.57487  1.0000
  C   C93       1.0  0.54548  0.46489  0.48922  1.0000
  H   H49       1.0  0.54215  0.47649  0.54467  1.0000
  H   H50       1.0  0.56905  0.47308  0.48304  1.0000
  H   H51       1.0  0.53428  0.44148  0.50552  1.0000
  C   C94       1.0  0.46376  0.56908  0.36956  1.0000
  H   H52       1.0  0.47730  0.58826  0.39819  1.0000
  C   C95       1.0  0.45641  0.92528  0.36307  1.0000
  C   C96       1.0  0.46359  0.94482  0.43701  1.0000
  N   N9        1.0  0.48160  0.97415  0.42343  1.0000
  C   C97       1.0  0.49365  0.98658  0.34342  1.0000
  N   N10       1.0  0.51786  0.03543  0.40665  1.0000
  C   C98       1.0  0.53544  0.06520  0.40417  1.0000
  C   C99       1.0  0.45332  0.93619  0.53037  1.0000
  H   H53       1.0  0.44022  0.91244  0.53962  1.0000
  H   H54       1.0  0.43998  0.94589  0.55021  1.0000
  H   H55       1.0  0.47230  0.94441  0.57495  1.0000
  C   C100      1.0  0.54007  0.08143  0.48926  1.0000
  H   H56       1.0  0.52849  0.06650  0.54473  1.0000
  H   H57       1.0  0.53184  0.09678  0.48314  1.0000
  H   H58       1.0  0.56349  0.09366  0.50550  1.0000
  C   C101      1.0  0.43593  0.89556  0.36967  1.0000
  H   H59       1.0  0.41677  0.88990  0.39851  1.0000
  C   C102      1.0  0.07988  0.53234  0.36339  1.0000
  C   C103      1.0  0.06032  0.51991  0.43724  1.0000
  N   N11       1.0  0.03096  0.50852  0.42356  1.0000
  C   C104      1.0  0.01854  0.50809  0.34347  1.0000
  N   N12       1.0  0.96962  0.48346  0.40646  1.0000
  C   C105      1.0  0.93984  0.47126  0.40380  1.0000
  C   C106      1.0  0.06895  0.51831  0.53063  1.0000
  H   H60       1.0  0.09270  0.52900  0.53991  1.0000
  H   H61       1.0  0.05929  0.49530  0.55051  1.0000
  H   H62       1.0  0.06069  0.52906  0.57515  1.0000
  C   C107      1.0  0.92362  0.45980  0.48898  1.0000
  H   H63       1.0  0.93857  0.46336  0.54458  1.0000
  H   H64       1.0  0.90837  0.43620  0.48332  1.0000
  H   H65       1.0  0.91129  0.47092  0.50472  1.0000
  C   C108      1.0  0.10966  0.54184  0.37003  1.0000
  H   H66       1.0  0.11557  0.52854  0.39902  1.0000
