data_image0
_chemical_formula_structural       C13H9C13H9C13H9C13H9C4HC6H3C4HC6H3C4HC6H3CNCHNHCNCHNHCNCHNHC17H12C17H12C17H12C17H12CNCHNHCNCHNHCNCHNHC4HC6H3C4HC6H3C4HC6H3
_chemical_formula_sum              "C192 H120 N12"
_cell_length_a       68.4218
_cell_length_b       68.405
_cell_length_c       14.9811
_cell_angle_alpha    90
_cell_angle_beta     90
_cell_angle_gamma    120.004

_space_group_name_H-M_alt    "P 1"
_space_group_IT_number       1

loop_
  _space_group_symop_operation_xyz
  'x, y, z'

loop_
  _atom_site_type_symbol
  _atom_site_label
  _atom_site_symmetry_multiplicity
  _atom_site_fract_x
  _atom_site_fract_y
  _atom_site_fract_z
  _atom_site_occupancy
  C   C1        1.0  0.92574  0.86428  0.32666  1.0000
  C   C2        1.0  0.94973  0.91259  0.32669  1.0000
  C   C3        1.0  0.92972  0.90025  0.27630  1.0000
  C   C4        1.0  0.91795  0.87650  0.27615  1.0000
  C   C5        1.0  0.96138  0.93610  0.32321  1.0000
  C   C6        1.0  0.05440  0.02571  0.32928  1.0000
  C   C7        1.0  0.09023  0.02994  0.28200  1.0000
  C   C8        1.0  0.12623  0.06175  0.33333  1.0000
  C   C9        1.0  0.11398  0.04192  0.28175  1.0000
  C   C10       1.0  0.97248  0.03691  0.33345  1.0000
  C   C11       1.0  0.93640  0.03502  0.30689  1.0000
  C   C12       1.0  0.93261  0.06849  0.33174  1.0000
  C   C13       1.0  0.92333  0.04565  0.30555  1.0000
  H   H1        1.0  0.90343  0.86818  0.23940  1.0000
  H   H2        1.0  0.92348  0.90847  0.23909  1.0000
  H   H3        1.0  0.92916  0.01851  0.28712  1.0000
  H   H4        1.0  0.08201  0.01567  0.24371  1.0000
  H   H5        1.0  0.12227  0.03589  0.24392  1.0000
  H   H6        1.0  0.90681  0.03641  0.28615  1.0000
  H   H7        1.0  0.04740  0.01946  0.27009  1.0000
  H   H8        1.0  0.96193  0.94325  0.26459  1.0000
  H   H9        1.0  0.98601  0.04375  0.29412  1.0000
  C   C14       1.0  0.50726  0.34186  0.31649  1.0000
  C   C15       1.0  0.47346  0.29508  0.31867  1.0000
  C   C16       1.0  0.49379  0.30267  0.27081  1.0000
  C   C17       1.0  0.51040  0.32564  0.26987  1.0000
  C   C18       1.0  0.45791  0.27208  0.32077  1.0000
  C   C19       1.0  0.36529  0.18454  0.33817  1.0000
  C   C20       1.0  0.32962  0.18019  0.28788  1.0000
  C   C21       1.0  0.29347  0.14828  0.33728  1.0000
  C   C22       1.0  0.30587  0.16815  0.28611  1.0000
  C   C23       1.0  0.45087  0.17758  0.34361  1.0000
  C   C24       1.0  0.48655  0.18456  0.28462  1.0000
  C   C25       1.0  0.50289  0.16120  0.32989  1.0000
  C   C26       1.0  0.50407  0.17950  0.28101  1.0000
  H   H10       1.0  0.52521  0.33026  0.23707  1.0000
  H   H11       1.0  0.49700  0.29143  0.23792  1.0000
  H   H12       1.0  0.48825  0.19821  0.24976  1.0000
  H   H13       1.0  0.33797  0.19451  0.24994  1.0000
  H   H14       1.0  0.29770  0.17419  0.24759  1.0000
  H   H15       1.0  0.51810  0.18989  0.24430  1.0000
  H   H16       1.0  0.37259  0.19087  0.27948  1.0000
  H   H17       1.0  0.45533  0.26348  0.26411  1.0000
  H   H18       1.0  0.44044  0.17388  0.29201  1.0000
  C   C27       1.0  0.64899  0.16585  0.31731  1.0000
  C   C28       1.0  0.69576  0.17875  0.31913  1.0000
  C   C29       1.0  0.68818  0.19152  0.27133  1.0000
  C   C30       1.0  0.66522  0.18520  0.27061  1.0000
  C   C31       1.0  0.71876  0.18617  0.32087  1.0000
  C   C32       1.0  0.80361  0.17848  0.33768  1.0000
  C   C33       1.0  0.80650  0.14510  0.30975  1.0000
  C   C34       1.0  0.84209  0.14522  0.33442  1.0000
  C   C35       1.0  0.81917  0.13404  0.30764  1.0000
  C   C36       1.0  0.81348  0.27402  0.34423  1.0000
  C   C37       1.0  0.80644  0.30269  0.28527  1.0000
  C   C38       1.0  0.82992  0.34241  0.32996  1.0000
  C   C39       1.0  0.81154  0.32529  0.28149  1.0000
  H   H19       1.0  0.66061  0.19540  0.23781  1.0000
  H   H20       1.0  0.69940  0.20595  0.23836  1.0000
  H   H21       1.0  0.79272  0.29073  0.25075  1.0000
  H   H22       1.0  0.78997  0.13640  0.28991  1.0000
  H   H23       1.0  0.81135  0.11757  0.28721  1.0000
  H   H24       1.0  0.80113  0.32894  0.24496  1.0000
  H   H25       1.0  0.79398  0.17602  0.28423  1.0000
  H   H26       1.0  0.72733  0.19232  0.26423  1.0000
  H   H27       1.0  0.81765  0.26742  0.29356  1.0000
  C   C40       1.0  0.82519  0.48375  0.31625  1.0000
  C   C41       1.0  0.81197  0.51737  0.31884  1.0000
  C   C42       1.0  0.79929  0.49703  0.27086  1.0000
  C   C43       1.0  0.80577  0.48051  0.26975  1.0000
  C   C44       1.0  0.80436  0.53278  0.32141  1.0000
  C   C45       1.0  0.80976  0.62530  0.33908  1.0000
  C   C46       1.0  0.84111  0.66092  0.28858  1.0000
  C   C47       1.0  0.84519  0.69711  0.33633  1.0000
  C   C48       1.0  0.85277  0.68466  0.28609  1.0000
  C   C49       1.0  0.71702  0.53997  0.34411  1.0000
  C   C50       1.0  0.68831  0.50439  0.28443  1.0000
  C   C51       1.0  0.64860  0.48806  0.32952  1.0000
  C   C52       1.0  0.66572  0.48688  0.28062  1.0000
  H   H28       1.0  0.79561  0.46568  0.23702  1.0000
  H   H29       1.0  0.78480  0.49373  0.23822  1.0000
  H   H30       1.0  0.70026  0.50268  0.24964  1.0000
  H   H31       1.0  0.84716  0.65253  0.25128  1.0000
  H   H32       1.0  0.86701  0.69281  0.24769  1.0000
  H   H33       1.0  0.66207  0.47286  0.24381  1.0000
  H   H34       1.0  0.80895  0.61793  0.28071  1.0000
  H   H35       1.0  0.79832  0.53538  0.26485  1.0000
  H   H36       1.0  0.72382  0.55048  0.29274  1.0000
  C   C53       1.0  0.15028  0.07415  0.33138  1.0000
  C   C54       1.0  0.19793  0.09884  0.33021  1.0000
  C   C55       1.0  0.18607  0.09250  0.24781  1.0000
  C   C56       1.0  0.16224  0.08002  0.24960  1.0000
  H   H37       1.0  0.15351  0.07556  0.19060  1.0000
  C   C57       1.0  0.22178  0.11117  0.33076  1.0000
  C   C58       1.0  0.26942  0.13587  0.33417  1.0000
  C   C59       1.0  0.25771  0.13000  0.25182  1.0000
  C   C60       1.0  0.23389  0.11753  0.24892  1.0000
  C   C61       1.0  0.22196  0.11125  0.16738  1.0000
  C   C62       1.0  0.19824  0.09878  0.16682  1.0000
  H   H38       1.0  0.23043  0.11566  0.10783  1.0000
  H   H39       1.0  0.18996  0.09438  0.10690  1.0000
  H   H40       1.0  0.26663  0.13449  0.19324  1.0000
  C   C63       1.0  0.91938  0.07932  0.32952  1.0000
  C   C64       1.0  0.89349  0.10106  0.32786  1.0000
  C   C65       1.0  0.89266  0.08791  0.25305  1.0000
  C   C66       1.0  0.90566  0.07711  0.25509  1.0000
  H   H41       1.0  0.90541  0.06783  0.20097  1.0000
  C   C67       1.0  0.88062  0.11202  0.32819  1.0000
  C   C68       1.0  0.85498  0.13404  0.33128  1.0000
  C   C69       1.0  0.85411  0.12098  0.25642  1.0000
  C   C70       1.0  0.86684  0.10990  0.25370  1.0000
  C   C71       1.0  0.86621  0.09689  0.17944  1.0000
  C   C72       1.0  0.87901  0.08598  0.17913  1.0000
  H   H42       1.0  0.85639  0.09520  0.12520  1.0000
  H   H43       1.0  0.87823  0.07659  0.12465  1.0000
  H   H44       1.0  0.84437  0.11980  0.20253  1.0000
  C   C73       1.0  0.91401  0.84023  0.32544  1.0000
  C   C74       1.0  0.89102  0.79258  0.32586  1.0000
  C   C75       1.0  0.89624  0.80427  0.24307  1.0000
  C   C76       1.0  0.90760  0.82810  0.24407  1.0000
  H   H45       1.0  0.91166  0.83672  0.18479  1.0000
  C   C77       1.0  0.87954  0.76874  0.32725  1.0000
  C   C78       1.0  0.85674  0.72112  0.33236  1.0000
  C   C79       1.0  0.86226  0.73262  0.24957  1.0000
  C   C80       1.0  0.87352  0.75644  0.24583  1.0000
  C   C81       1.0  0.87887  0.76818  0.16388  1.0000
  C   C82       1.0  0.89006  0.79190  0.16251  1.0000
  H   H46       1.0  0.87461  0.75958  0.10464  1.0000
  H   H47       1.0  0.89373  0.80005  0.10231  1.0000
  H   H48       1.0  0.85767  0.72356  0.19134  1.0000
  C   C83       1.0  0.53326  0.15885  0.24907  1.0000
  N   N1        1.0  0.55247  0.15774  0.25045  1.0000
  C   C84       1.0  0.61489  0.16165  0.24200  1.0000
  H   H49       1.0  0.52792  0.16158  0.18907  1.0000
  N   N2        1.0  0.59401  0.15921  0.24687  1.0000
  H   H50       1.0  0.62261  0.16498  0.18104  1.0000
  C   C85       1.0  0.83237  0.37512  0.24885  1.0000
  N   N3        1.0  0.83349  0.39546  0.25009  1.0000
  C   C86       1.0  0.82954  0.45393  0.24110  1.0000
  H   H51       1.0  0.82963  0.36702  0.18893  1.0000
  N   N4        1.0  0.83200  0.43550  0.24616  1.0000
  H   H52       1.0  0.82621  0.45830  0.18009  1.0000
  C   C87       1.0  0.61590  0.45771  0.24857  1.0000
  N   N5        1.0  0.59558  0.43848  0.24989  1.0000
  C   C88       1.0  0.53713  0.37601  0.24123  1.0000
  H   H53       1.0  0.62396  0.46308  0.18858  1.0000
  N   N6        1.0  0.55554  0.39690  0.24617  1.0000
  H   H54       1.0  0.53274  0.36829  0.18025  1.0000
  C   C89       1.0  0.94576  0.87660  0.37699  1.0000
  C   C90       1.0  0.95768  0.90036  0.37636  1.0000
  C   C91       1.0  0.97113  0.94962  0.39403  1.0000
  C   C92       1.0  0.98219  0.97293  0.38863  1.0000
  C   C93       1.0  0.96983  0.98439  0.38447  1.0000
  C   C94       1.0  0.98089  0.00826  0.38391  1.0000
  C   C95       1.0  0.00477  0.02057  0.38897  1.0000
  C   C96       1.0  0.01740  0.00938  0.39252  1.0000
  C   C97       1.0  0.00597  0.98555  0.39312  1.0000
  C   C98       1.0  0.04067  0.02162  0.39962  1.0000
  C   C99       1.0  0.07790  0.03742  0.33359  1.0000
  C   C100      1.0  0.09015  0.05736  0.38465  1.0000
  C   C101      1.0  0.11391  0.06919  0.38519  1.0000
  C   C102      1.0  0.96805  0.01889  0.38393  1.0000
  C   C103      1.0  0.95922  0.04698  0.33430  1.0000
  C   C104      1.0  0.96866  0.06982  0.35974  1.0000
  C   C105      1.0  0.95547  0.08034  0.35916  1.0000
  H   H55       1.0  0.95222  0.86836  0.41273  1.0000
  H   H56       1.0  0.97242  0.90862  0.41174  1.0000
  H   H57       1.0  0.01503  0.97733  0.39768  1.0000
  H   H58       1.0  0.95253  0.97520  0.38281  1.0000
  H   H59       1.0  0.01305  0.03786  0.39127  1.0000
  H   H60       1.0  0.12216  0.08376  0.42165  1.0000
  H   H61       1.0  0.08190  0.06370  0.42091  1.0000
  H   H62       1.0  0.96295  0.09699  0.37697  1.0000
  H   H63       1.0  0.98520  0.07899  0.37907  1.0000
  H   H64       1.0  0.04711  0.02723  0.45992  1.0000
  H   H65       1.0  0.97052  0.94295  0.45365  1.0000
  H   H66       1.0  0.95436  0.01223  0.42257  1.0000
  C   C106      1.0  0.48675  0.33427  0.36351  1.0000
  C   C107      1.0  0.47004  0.31125  0.36416  1.0000
  C   C108      1.0  0.44880  0.26049  0.39648  1.0000
  C   C109      1.0  0.43724  0.23715  0.39859  1.0000
  C   C110      1.0  0.44953  0.22562  0.40169  1.0000
  C   C111      1.0  0.43837  0.20181  0.40547  1.0000
  C   C112      1.0  0.41452  0.18950  0.40747  1.0000
  C   C113      1.0  0.40196  0.20079  0.40480  1.0000
  C   C114      1.0  0.41344  0.22464  0.40083  1.0000
  C   C115      1.0  0.37865  0.18860  0.40976  1.0000
  C   C116      1.0  0.34178  0.17272  0.34062  1.0000
  C   C117      1.0  0.32937  0.15271  0.39111  1.0000
  C   C118      1.0  0.30561  0.14082  0.39013  1.0000
  C   C119      1.0  0.45123  0.19131  0.40853  1.0000
  C   C120      1.0  0.46730  0.17149  0.33782  1.0000
  C   C121      1.0  0.46579  0.15310  0.38643  1.0000
  C   C122      1.0  0.48339  0.14808  0.38252  1.0000
  H   H67       1.0  0.48377  0.34547  0.39759  1.0000
  H   H68       1.0  0.45544  0.30638  0.39901  1.0000
  H   H69       1.0  0.40444  0.23294  0.39998  1.0000
  H   H70       1.0  0.46685  0.23471  0.40073  1.0000
  H   H71       1.0  0.40628  0.17222  0.41142  1.0000
  H   H72       1.0  0.29725  0.12623  0.42639  1.0000
  H   H73       1.0  0.33750  0.14638  0.42818  1.0000
  H   H74       1.0  0.48181  0.13466  0.41861  1.0000
  H   H75       1.0  0.45204  0.14346  0.42588  1.0000
  H   H76       1.0  0.37187  0.18282  0.46948  1.0000
  H   H77       1.0  0.45245  0.26850  0.45481  1.0000
  H   H78       1.0  0.46306  0.19644  0.45568  1.0000
  C   C123      1.0  0.65659  0.15294  0.36434  1.0000
  C   C124      1.0  0.67958  0.15920  0.36485  1.0000
  C   C125      1.0  0.73042  0.18845  0.39615  1.0000
  C   C126      1.0  0.75377  0.20044  0.39790  1.0000
  C   C127      1.0  0.76506  0.22425  0.40159  1.0000
  C   C128      1.0  0.78886  0.23715  0.40448  1.0000
  C   C129      1.0  0.80139  0.22583  0.40513  1.0000
  C   C130      1.0  0.79041  0.20199  0.40163  1.0000
  C   C131      1.0  0.76654  0.18940  0.39854  1.0000
  C   C132      1.0  0.80309  0.19132  0.40462  1.0000
  C   C133      1.0  0.81631  0.16772  0.33903  1.0000
  C   C134      1.0  0.83926  0.17902  0.36511  1.0000
  C   C135      1.0  0.85188  0.16790  0.36339  1.0000
  C   C136      1.0  0.79912  0.26049  0.40735  1.0000
  C   C137      1.0  0.81953  0.29652  0.33834  1.0000
  C   C138      1.0  0.83800  0.31340  0.38651  1.0000
  C   C139      1.0  0.84308  0.33605  0.38240  1.0000
  H   H79       1.0  0.64538  0.13876  0.39850  1.0000
  H   H80       1.0  0.68445  0.14946  0.39963  1.0000
  H   H81       1.0  0.75841  0.17210  0.39725  1.0000
  H   H82       1.0  0.75579  0.23230  0.40144  1.0000
  H   H83       1.0  0.81867  0.23507  0.40822  1.0000
  H   H84       1.0  0.86852  0.17677  0.38139  1.0000
  H   H85       1.0  0.84713  0.19559  0.38447  1.0000
  H   H86       1.0  0.85655  0.34790  0.41819  1.0000
  H   H87       1.0  0.84768  0.30931  0.42576  1.0000
  H   H88       1.0  0.81256  0.19390  0.45857  1.0000
  H   H89       1.0  0.72249  0.18401  0.45461  1.0000
  H   H90       1.0  0.79364  0.26713  0.45341  1.0000
  C   C140      1.0  0.83803  0.50427  0.36330  1.0000
  C   C141      1.0  0.83162  0.52090  0.36416  1.0000
  C   C142      1.0  0.80186  0.54181  0.39727  1.0000
  C   C143      1.0  0.79011  0.55339  0.39974  1.0000
  C   C144      1.0  0.76629  0.54112  0.40268  1.0000
  C   C145      1.0  0.75366  0.55230  0.40645  1.0000
  C   C146      1.0  0.76524  0.57616  0.40860  1.0000
  C   C147      1.0  0.78909  0.58870  0.40605  1.0000
  C   C148      1.0  0.80143  0.57719  0.40208  1.0000
  C   C149      1.0  0.80023  0.61201  0.41068  1.0000
  C   C150      1.0  0.82143  0.64881  0.34104  1.0000
  C   C151      1.0  0.81372  0.66127  0.39060  1.0000
  C   C152      1.0  0.82555  0.68503  0.38900  1.0000
  C   C153      1.0  0.73032  0.53946  0.40902  1.0000
  C   C154      1.0  0.69450  0.52359  0.33793  1.0000
  C   C155      1.0  0.67763  0.52510  0.38657  1.0000
  C   C156      1.0  0.65498  0.50752  0.38238  1.0000
  H   H91       1.0  0.85225  0.50731  0.39735  1.0000
  H   H92       1.0  0.84127  0.53549  0.39912  1.0000
  H   H93       1.0  0.81873  0.58618  0.40119  1.0000
  H   H94       1.0  0.75804  0.52379  0.40149  1.0000
  H   H95       1.0  0.75622  0.58442  0.41239  1.0000
  H   H96       1.0  0.81925  0.69344  0.42454  1.0000
  H   H97       1.0  0.79920  0.65317  0.42738  1.0000
  H   H98       1.0  0.64315  0.50908  0.41852  1.0000
  H   H99       1.0  0.68172  0.53881  0.42621  1.0000
  H   H100      1.0  0.80103  0.61885  0.47010  1.0000
  H   H101      1.0  0.80637  0.53826  0.45547  1.0000
  H   H102      1.0  0.72353  0.52758  0.45598  1.0000
  C   C157      1.0  0.16312  0.08120  0.41089  1.0000
  N   N7        1.0  0.18600  0.09292  0.40770  1.0000
  C   C158      1.0  0.25634  0.12880  0.41307  1.0000
  H   H103      1.0  0.15546  0.07726  0.47202  1.0000
  N   N8        1.0  0.23348  0.11708  0.40882  1.0000
  H   H104      1.0  0.26382  0.13274  0.47456  1.0000
  C   C159      1.0  0.91948  0.09277  0.40146  1.0000
  N   N9        1.0  0.90677  0.10288  0.39843  1.0000
  C   C160      1.0  0.86915  0.13552  0.40285  1.0000
  H   H105      1.0  0.92879  0.09480  0.45764  1.0000
  N   N10       1.0  0.88114  0.12465  0.39914  1.0000
  H   H106      1.0  0.87030  0.14441  0.45935  1.0000
  C   C161      1.0  0.90851  0.82756  0.40536  1.0000
  N   N11       1.0  0.89733  0.80468  0.40294  1.0000
  C   C162      1.0  0.86297  0.73437  0.41083  1.0000
  H   H107      1.0  0.91247  0.83536  0.46621  1.0000
  N   N12       1.0  0.87405  0.75723  0.40574  1.0000
  H   H108      1.0  0.85964  0.72703  0.47256  1.0000
  C   C163      1.0  0.52144  0.15711  0.32894  1.0000
  C   C164      1.0  0.56136  0.15449  0.32625  1.0000
  C   C165      1.0  0.54997  0.15174  0.40856  1.0000
  C   C166      1.0  0.52995  0.15299  0.40864  1.0000
  H   H109      1.0  0.52227  0.15218  0.46827  1.0000
  C   C167      1.0  0.58232  0.15518  0.32440  1.0000
  C   C168      1.0  0.62596  0.16046  0.31983  1.0000
  C   C169      1.0  0.61387  0.15553  0.40125  1.0000
  C   C170      1.0  0.59209  0.15304  0.40483  1.0000
  C   C171      1.0  0.58028  0.14949  0.48601  1.0000
  C   C172      1.0  0.55941  0.14887  0.48786  1.0000
  H   H110      1.0  0.58711  0.14807  0.54473  1.0000
  H   H111      1.0  0.55153  0.14702  0.54790  1.0000
  H   H112      1.0  0.62151  0.15513  0.45945  1.0000
  C   C173      1.0  0.83405  0.36506  0.32887  1.0000
  C   C174      1.0  0.83669  0.40759  0.32584  1.0000
  C   C175      1.0  0.83940  0.39896  0.40827  1.0000
  C   C176      1.0  0.83817  0.37771  0.40852  1.0000
  H   H113      1.0  0.83891  0.37081  0.46820  1.0000
  C   C177      1.0  0.83600  0.42787  0.32382  1.0000
  C   C178      1.0  0.83068  0.46619  0.31886  1.0000
  C   C179      1.0  0.83555  0.45903  0.40042  1.0000
  C   C180      1.0  0.83809  0.43977  0.40418  1.0000
  C   C181      1.0  0.84159  0.43152  0.48549  1.0000
  C   C182      1.0  0.84221  0.41128  0.48752  1.0000
  H   H114      1.0  0.84298  0.43979  0.54415  1.0000
  H   H115      1.0  0.84406  0.40527  0.54762  1.0000
  H   H116      1.0  0.83592  0.46709  0.45855  1.0000
  C   C183      1.0  0.62597  0.46949  0.32851  1.0000
  C   C184      1.0  0.58345  0.42955  0.32567  1.0000
  C   C185      1.0  0.59209  0.44092  0.40804  1.0000
  C   C186      1.0  0.61334  0.46095  0.40820  1.0000
  H   H117      1.0  0.62022  0.46861  0.46786  1.0000
  C   C187      1.0  0.56319  0.40857  0.32376  1.0000
  C   C188      1.0  0.52487  0.36491  0.31904  1.0000
  C   C189      1.0  0.53203  0.37698  0.40052  1.0000
  C   C190      1.0  0.55130  0.39877  0.40417  1.0000
  C   C191      1.0  0.55955  0.41056  0.48541  1.0000
  C   C192      1.0  0.57978  0.43144  0.48733  1.0000
  H   H118      1.0  0.55131  0.40370  0.54411  1.0000
  H   H119      1.0  0.58581  0.43930  0.54740  1.0000
  H   H120      1.0  0.52399  0.36931  0.45870  1.0000
