data_image0
_chemical_formula_structural       C17H12C17H12C2H2C2H2C2H2C13H9C13H9C4NC2NH2C4NC2NH2C4NC2NH2
_chemical_formula_sum              "C84 H54 N6"
_cell_length_a       37.3393
_cell_length_b       37.314
_cell_length_c       14.8367
_cell_angle_alpha    90
_cell_angle_beta     90
_cell_angle_gamma    120.036

_space_group_name_H-M_alt    "P 1"
_space_group_IT_number       1

loop_
  _space_group_symop_operation_xyz
  'x, y, z'

loop_
  _atom_site_type_symbol
  _atom_site_label
  _atom_site_symmetry_multiplicity
  _atom_site_fract_x
  _atom_site_fract_y
  _atom_site_fract_z
  _atom_site_occupancy
  C   C1        1.0  0.47934  0.89319  0.32856  1.0000
  C   C2        1.0  0.45567  0.84967  0.33275  1.0000
  C   C3        1.0  0.39129  0.75878  0.30216  1.0000
  C   C4        1.0  0.36645  0.71596  0.30995  1.0000
  C   C5        1.0  0.32274  0.69657  0.31008  1.0000
  C   C6        1.0  0.29743  0.65294  0.31064  1.0000
  C   C7        1.0  0.31683  0.62862  0.30946  1.0000
  C   C8        1.0  0.36042  0.64698  0.30952  1.0000
  C   C9        1.0  0.38477  0.69071  0.30887  1.0000
  C   C10       1.0  0.37834  0.62210  0.30187  1.0000
  C   C11       1.0  0.42803  0.60140  0.34622  1.0000
  C   C12       1.0  0.40492  0.55788  0.33470  1.0000
  C   C13       1.0  0.42469  0.53416  0.33069  1.0000
  C   C14       1.0  0.25457  0.63513  0.30408  1.0000
  C   C15       1.0  0.18422  0.58472  0.34592  1.0000
  C   C16       1.0  0.15942  0.54109  0.34150  1.0000
  C   C17       1.0  0.11597  0.52172  0.33774  1.0000
  H   H1        1.0  0.51067  0.90704  0.31961  1.0000
  H   H2        1.0  0.47059  0.83306  0.32712  1.0000
  H   H3        1.0  0.41636  0.70439  0.30530  1.0000
  H   H4        1.0  0.30912  0.71455  0.30748  1.0000
  H   H5        1.0  0.29891  0.59701  0.30631  1.0000
  H   H6        1.0  0.40708  0.50270  0.32389  1.0000
  H   H7        1.0  0.37332  0.54288  0.33098  1.0000
  H   H8        1.0  0.09888  0.49008  0.33569  1.0000
  H   H9        1.0  0.17280  0.52291  0.34158  1.0000
  H   H10       1.0  0.36717  0.60043  0.25420  1.0000
  H   H11       1.0  0.41253  0.76926  0.25361  1.0000
  H   H12       1.0  0.24394  0.64752  0.25955  1.0000
  C   C18       1.0  0.53722  0.11782  0.32839  1.0000
  C   C19       1.0  0.56088  0.16135  0.33264  1.0000
  C   C20       1.0  0.62525  0.25223  0.30207  1.0000
  C   C21       1.0  0.65008  0.29506  0.30986  1.0000
  C   C22       1.0  0.69378  0.31445  0.31006  1.0000
  C   C23       1.0  0.71909  0.35808  0.31072  1.0000
  C   C24       1.0  0.69969  0.38239  0.30955  1.0000
  C   C25       1.0  0.65609  0.36403  0.30960  1.0000
  C   C26       1.0  0.63175  0.32030  0.30883  1.0000
  C   C27       1.0  0.63818  0.38892  0.30193  1.0000
  C   C28       1.0  0.58848  0.40962  0.34623  1.0000
  C   C29       1.0  0.61159  0.45314  0.33474  1.0000
  C   C30       1.0  0.59182  0.47686  0.33077  1.0000
  C   C31       1.0  0.76196  0.37590  0.30411  1.0000
  C   C32       1.0  0.83230  0.42631  0.34596  1.0000
  C   C33       1.0  0.85710  0.46995  0.34158  1.0000
  C   C34       1.0  0.90055  0.48932  0.33785  1.0000
  H   H13       1.0  0.50589  0.10397  0.31948  1.0000
  H   H14       1.0  0.54596  0.17795  0.32694  1.0000
  H   H15       1.0  0.60016  0.30662  0.30527  1.0000
  H   H16       1.0  0.70740  0.29647  0.30744  1.0000
  H   H17       1.0  0.71760  0.41401  0.30640  1.0000
  H   H18       1.0  0.60944  0.50832  0.32394  1.0000
  H   H19       1.0  0.64319  0.46813  0.33105  1.0000
  H   H20       1.0  0.91764  0.52096  0.33582  1.0000
  H   H21       1.0  0.84372  0.48813  0.34173  1.0000
  H   H22       1.0  0.64937  0.41060  0.25428  1.0000
  H   H23       1.0  0.60402  0.24175  0.25349  1.0000
  H   H24       1.0  0.77258  0.36352  0.25956  1.0000
  C   C35       1.0  0.49814  0.51715  0.25871  1.0000
  C   C36       1.0  0.51837  0.49385  0.25872  1.0000
  H   H25       1.0  0.52534  0.48556  0.19829  1.0000
  H   H26       1.0  0.49116  0.52544  0.19828  1.0000
  C   C37       1.0  0.49659  0.98373  0.25922  1.0000
  C   C38       1.0  0.51993  0.02729  0.25922  1.0000
  H   H27       1.0  0.52822  0.04258  0.19880  1.0000
  H   H28       1.0  0.48827  0.96846  0.19879  1.0000
  C   C39       1.0  0.03002  0.51546  0.25870  1.0000
  C   C40       1.0  0.98650  0.49555  0.25870  1.0000
  H   H29       1.0  0.97123  0.48857  0.19828  1.0000
  H   H30       1.0  0.04529  0.52242  0.19828  1.0000
  C   C41       1.0  0.46036  0.91750  0.33949  1.0000
  C   C42       1.0  0.41236  0.82925  0.34716  1.0000
  C   C43       1.0  0.39362  0.85390  0.35803  1.0000
  C   C44       1.0  0.41726  0.89741  0.35442  1.0000
  C   C45       1.0  0.38832  0.78632  0.35572  1.0000
  C   C46       1.0  0.40925  0.62551  0.35461  1.0000
  C   C47       1.0  0.47154  0.62029  0.35452  1.0000
  C   C48       1.0  0.46811  0.55331  0.33895  1.0000
  C   C49       1.0  0.49134  0.59662  0.35099  1.0000
  C   C50       1.0  0.22702  0.60290  0.35396  1.0000
  C   C51       1.0  0.16417  0.60842  0.34732  1.0000
  C   C52       1.0  0.09618  0.54553  0.33894  1.0000
  C   C53       1.0  0.12069  0.58908  0.34386  1.0000
  H   H31       1.0  0.40283  0.91432  0.36369  1.0000
  H   H32       1.0  0.36248  0.84036  0.36965  1.0000
  H   H33       1.0  0.18102  0.63998  0.35281  1.0000
  H   H34       1.0  0.48931  0.65160  0.36406  1.0000
  H   H35       1.0  0.52280  0.61119  0.35835  1.0000
  H   H36       1.0  0.10704  0.60698  0.34642  1.0000
  H   H37       1.0  0.42040  0.64743  0.40180  1.0000
  H   H38       1.0  0.36679  0.77553  0.40371  1.0000
  H   H39       1.0  0.23755  0.59034  0.39824  1.0000
  C   C54       1.0  0.55619  0.09353  0.33952  1.0000
  C   C55       1.0  0.60418  0.18177  0.34714  1.0000
  C   C56       1.0  0.62292  0.15713  0.35810  1.0000
  C   C57       1.0  0.59929  0.11363  0.35451  1.0000
  C   C58       1.0  0.62820  0.22471  0.35570  1.0000
  C   C59       1.0  0.60726  0.38550  0.35465  1.0000
  C   C60       1.0  0.54497  0.39072  0.35450  1.0000
  C   C61       1.0  0.54840  0.45771  0.33898  1.0000
  C   C62       1.0  0.52517  0.41439  0.35099  1.0000
  C   C63       1.0  0.78950  0.40812  0.35401  1.0000
  C   C64       1.0  0.85236  0.40262  0.34731  1.0000
  C   C65       1.0  0.92034  0.46551  0.33894  1.0000
  C   C66       1.0  0.89584  0.42196  0.34382  1.0000
  H   H40       1.0  0.61372  0.09672  0.36386  1.0000
  H   H41       1.0  0.65406  0.17068  0.36977  1.0000
  H   H42       1.0  0.83551  0.37105  0.35270  1.0000
  H   H43       1.0  0.52720  0.35941  0.36401  1.0000
  H   H44       1.0  0.49371  0.39982  0.35830  1.0000
  H   H45       1.0  0.90948  0.40406  0.34628  1.0000
  H   H46       1.0  0.59608  0.36356  0.40179  1.0000
  H   H47       1.0  0.64973  0.23551  0.40371  1.0000
  H   H48       1.0  0.77897  0.42068  0.39832  1.0000
  C   C67       1.0  0.52861  0.48174  0.34049  1.0000
  C   C68       1.0  0.51834  0.49360  0.42284  1.0000
  C   C69       1.0  0.49818  0.51743  0.42284  1.0000
  C   C70       1.0  0.48791  0.52928  0.34048  1.0000
  N   N1        1.0  0.48904  0.52809  0.50389  1.0000
  C   C71       1.0  0.49828  0.51723  0.58409  1.0000
  C   C72       1.0  0.51824  0.49381  0.58410  1.0000
  N   N2        1.0  0.52747  0.48294  0.50390  1.0000
  H   H49       1.0  0.49079  0.52599  0.64307  1.0000
  H   H50       1.0  0.52572  0.48504  0.64308  1.0000
  C   C73       1.0  0.53213  0.04967  0.34100  1.0000
  C   C74       1.0  0.52026  0.02752  0.42335  1.0000
  C   C75       1.0  0.49633  0.98350  0.42335  1.0000
  C   C76       1.0  0.48443  0.96136  0.34099  1.0000
  N   N3        1.0  0.48566  0.96369  0.50441  1.0000
  C   C77       1.0  0.49657  0.98380  0.58461  1.0000
  C   C78       1.0  0.52006  0.02721  0.58462  1.0000
  N   N4        1.0  0.53095  0.04733  0.50442  1.0000
  H   H51       1.0  0.48779  0.96753  0.64359  1.0000
  H   H52       1.0  0.52886  0.04347  0.64360  1.0000
  C   C79       1.0  0.96415  0.48522  0.34049  1.0000
  C   C80       1.0  0.98626  0.49540  0.42284  1.0000
  C   C81       1.0  0.03026  0.51567  0.42284  1.0000
  C   C82       1.0  0.05238  0.52583  0.34048  1.0000
  N   N5        1.0  0.05007  0.52479  0.50389  1.0000
  C   C83       1.0  0.02996  0.51554  0.58408  1.0000
  C   C84       1.0  0.98657  0.49558  0.58409  1.0000
  N   N6        1.0  0.96646  0.48631  0.50389  1.0000
  H   H53       1.0  0.04621  0.52303  0.64307  1.0000
  H   H54       1.0  0.97032  0.48811  0.64307  1.0000
