data_image0
_chemical_formula_structural       C13H9C13H9C13H9C13H9C4NOCHC4NOCHC4NOCHC2NOCHC2NOCHC2NOCHC17H12C17H12C17H12C17H12C2NOCHC2NOCHC2NOCHC4NOCHC4NOCHC4NOCH
_chemical_formula_sum              "C168 H96 N12 O12"
_cell_length_a       57.2401
_cell_length_b       57.2234
_cell_length_c       14.9791
_cell_angle_alpha    90
_cell_angle_beta     90
_cell_angle_gamma    120.005

_space_group_name_H-M_alt    "P 1"
_space_group_IT_number       1

loop_
  _space_group_symop_operation_xyz
  'x, y, z'

loop_
  _atom_site_type_symbol
  _atom_site_label
  _atom_site_symmetry_multiplicity
  _atom_site_fract_x
  _atom_site_fract_y
  _atom_site_fract_z
  _atom_site_occupancy
  C   C1        1.0  0.91007  0.83768  0.33596  1.0000
  C   C2        1.0  0.93526  0.89508  0.33092  1.0000
  C   C3        1.0  0.90786  0.87913  0.35534  1.0000
  C   C4        1.0  0.89551  0.85083  0.35851  1.0000
  C   C5        1.0  0.94693  0.92289  0.32583  1.0000
  C   C6        1.0  0.06656  0.02483  0.32120  1.0000
  C   C7        1.0  0.11024  0.02943  0.35125  1.0000
  C   C8        1.0  0.15173  0.07311  0.33257  1.0000
  C   C9        1.0  0.13854  0.04538  0.35506  1.0000
  C   C10       1.0  0.96125  0.03880  0.31945  1.0000
  C   C11       1.0  0.91829  0.03723  0.34972  1.0000
  C   C12       1.0  0.91504  0.07817  0.33238  1.0000
  C   C13       1.0  0.90316  0.05045  0.35362  1.0000
  H   H1        1.0  0.87554  0.83985  0.37552  1.0000
  H   H2        1.0  0.89664  0.88798  0.37109  1.0000
  H   H3        1.0  0.90882  0.01702  0.36360  1.0000
  H   H4        1.0  0.10136  0.00937  0.36705  1.0000
  H   H5        1.0  0.14947  0.03637  0.37239  1.0000
  H   H6        1.0  0.88315  0.03944  0.37005  1.0000
  H   H7        1.0  0.05928  0.00927  0.27931  1.0000
  H   H8        1.0  0.93853  0.93012  0.28421  1.0000
  H   H9        1.0  0.97355  0.04349  0.26715  1.0000
  C   C14       1.0  0.52609  0.36633  0.32047  1.0000
  C   C15       1.0  0.48585  0.31058  0.32444  1.0000
  C   C16       1.0  0.51249  0.31881  0.29693  1.0000
  C   C17       1.0  0.53230  0.34624  0.29518  1.0000
  C   C18       1.0  0.46697  0.28321  0.32338  1.0000
  C   C19       1.0  0.35306  0.18212  0.33912  1.0000
  C   C20       1.0  0.30957  0.17880  0.31530  1.0000
  C   C21       1.0  0.26739  0.13609  0.33888  1.0000
  C   C22       1.0  0.28120  0.16365  0.31428  1.0000
  C   C23       1.0  0.45658  0.17061  0.34868  1.0000
  C   C24       1.0  0.50195  0.18436  0.30226  1.0000
  C   C25       1.0  0.52121  0.15496  0.32554  1.0000
  C   C26       1.0  0.52359  0.17947  0.29507  1.0000
  H   H10       1.0  0.55143  0.35137  0.27579  1.0000
  H   H11       1.0  0.51780  0.30488  0.27814  1.0000
  H   H12       1.0  0.50451  0.20244  0.28012  1.0000
  H   H13       1.0  0.31885  0.19873  0.29742  1.0000
  H   H14       1.0  0.27070  0.17308  0.29653  1.0000
  H   H15       1.0  0.54138  0.19439  0.26911  1.0000
  H   H16       1.0  0.36148  0.19424  0.28687  1.0000
  H   H17       1.0  0.46695  0.27280  0.27000  1.0000
  H   H18       1.0  0.44302  0.16434  0.29977  1.0000
  C   C27       1.0  0.62318  0.16023  0.31844  1.0000
  C   C28       1.0  0.67871  0.17480  0.32285  1.0000
  C   C29       1.0  0.67081  0.19292  0.28951  1.0000
  C   C30       1.0  0.64351  0.18578  0.28772  1.0000
  C   C31       1.0  0.70598  0.18288  0.32272  1.0000
  C   C32       1.0  0.80374  0.16776  0.34237  1.0000
  C   C33       1.0  0.80830  0.12829  0.36466  1.0000
  C   C34       1.0  0.85189  0.13067  0.34130  1.0000
  C   C35       1.0  0.82422  0.11589  0.36420  1.0000
  C   C36       1.0  0.81857  0.28656  0.34562  1.0000
  C   C37       1.0  0.80480  0.31819  0.29932  1.0000
  C   C38       1.0  0.83419  0.36686  0.32289  1.0000
  C   C39       1.0  0.80968  0.34472  0.29231  1.0000
  H   H19       1.0  0.63869  0.19970  0.26477  1.0000
  H   H20       1.0  0.68490  0.21167  0.26701  1.0000
  H   H21       1.0  0.78673  0.30268  0.27715  1.0000
  H   H22       1.0  0.78827  0.11695  0.38062  1.0000
  H   H23       1.0  0.81522  0.09575  0.37883  1.0000
  H   H24       1.0  0.79478  0.34761  0.26637  1.0000
  H   H25       1.0  0.78847  0.16036  0.29932  1.0000
  H   H26       1.0  0.71634  0.19189  0.26758  1.0000
  H   H27       1.0  0.82462  0.27922  0.29623  1.0000
  C   C40       1.0  0.82872  0.46340  0.31585  1.0000
  C   C41       1.0  0.81373  0.50407  0.32063  1.0000
  C   C42       1.0  0.79572  0.47797  0.28765  1.0000
  C   C43       1.0  0.80306  0.45795  0.28563  1.0000
  C   C44       1.0  0.80539  0.52307  0.32101  1.0000
  C   C45       1.0  0.81778  0.63628  0.33967  1.0000
  C   C46       1.0  0.85794  0.67982  0.31638  1.0000
  C   C47       1.0  0.85737  0.72197  0.34030  1.0000
  C   C48       1.0  0.87115  0.70820  0.31565  1.0000
  C   C49       1.0  0.70263  0.53293  0.34697  1.0000
  C   C50       1.0  0.67086  0.48766  0.30001  1.0000
  C   C51       1.0  0.62224  0.46846  0.32420  1.0000
  C   C52       1.0  0.64430  0.46605  0.29314  1.0000
  H   H28       1.0  0.78921  0.43916  0.26296  1.0000
  H   H29       1.0  0.77688  0.47313  0.26562  1.0000
  H   H30       1.0  0.68632  0.48505  0.27761  1.0000
  H   H31       1.0  0.86862  0.67057  0.29851  1.0000
  H   H32       1.0  0.89110  0.71874  0.29813  1.0000
  H   H33       1.0  0.64136  0.44824  0.26713  1.0000
  H   H34       1.0  0.82149  0.62791  0.28729  1.0000
  H   H35       1.0  0.79576  0.52395  0.26677  1.0000
  H   H36       1.0  0.71001  0.54652  0.29816  1.0000
  C   C53       1.0  0.23872  0.12074  0.33756  1.0000
  C   C54       1.0  0.22361  0.12027  0.26206  1.0000
  C   C55       1.0  0.19544  0.10485  0.26110  1.0000
  C   C56       1.0  0.18034  0.08903  0.33480  1.0000
  N   N1        1.0  0.18741  0.10769  0.18042  1.0000
  O   O1        1.0  0.23346  0.13282  0.18227  1.0000
  C   C57       1.0  0.21002  0.12443  0.13580  1.0000
  H   H37       1.0  0.20980  0.12975  0.07090  1.0000
  C   C58       1.0  0.86779  0.11794  0.33938  1.0000
  C   C59       1.0  0.88354  0.11970  0.26410  1.0000
  C   C60       1.0  0.89877  0.10675  0.26237  1.0000
  C   C61       1.0  0.89964  0.09142  0.33512  1.0000
  N   N2        1.0  0.91027  0.11129  0.18214  1.0000
  O   O2        1.0  0.88527  0.13235  0.18526  1.0000
  C   C62       1.0  0.90222  0.12650  0.13842  1.0000
  H   H38       1.0  0.90792  0.13282  0.07430  1.0000
  C   C63       1.0  0.87068  0.75065  0.33940  1.0000
  C   C64       1.0  0.88541  0.76589  0.26420  1.0000
  C   C65       1.0  0.89815  0.79406  0.26370  1.0000
  C   C66       1.0  0.89738  0.80905  0.33764  1.0000
  N   N3        1.0  0.90919  0.80223  0.18328  1.0000
  O   O3        1.0  0.88826  0.75616  0.18436  1.0000
  C   C67       1.0  0.90332  0.77968  0.13827  1.0000
  H   H39       1.0  0.90913  0.78001  0.07364  1.0000
  C   C68       1.0  0.58437  0.15813  0.23891  1.0000
  C   C69       1.0  0.55943  0.15700  0.24134  1.0000
  N   N4        1.0  0.55516  0.16359  0.16012  1.0000
  O   O4        1.0  0.59598  0.16553  0.15665  1.0000
  C   C70       1.0  0.57673  0.16823  0.11146  1.0000
  H   H40       1.0  0.57902  0.17425  0.04637  1.0000
  C   C71       1.0  0.83108  0.42685  0.23610  1.0000
  C   C72       1.0  0.83222  0.40306  0.23855  1.0000
  N   N5        1.0  0.82555  0.39214  0.15741  1.0000
  O   O5        1.0  0.82353  0.43099  0.15397  1.0000
  C   C73       1.0  0.82104  0.40913  0.10859  1.0000
  H   H41       1.0  0.81450  0.40512  0.04406  1.0000
  C   C74       1.0  0.56220  0.40505  0.23947  1.0000
  C   C75       1.0  0.58590  0.43007  0.24100  1.0000
  N   N6        1.0  0.59666  0.43404  0.15968  1.0000
  O   O6        1.0  0.55793  0.39306  0.15784  1.0000
  C   C76       1.0  0.57963  0.41234  0.11166  1.0000
  H   H42       1.0  0.58355  0.40962  0.04723  1.0000
  C   C77       1.0  0.93744  0.85372  0.31062  1.0000
  C   C78       1.0  0.94992  0.88206  0.30832  1.0000
  C   C79       1.0  0.96817  0.94008  0.37582  1.0000
  C   C80       1.0  0.98006  0.96805  0.37187  1.0000
  C   C81       1.0  0.96451  0.98100  0.37502  1.0000
  C   C82       1.0  0.97689  0.00943  0.37385  1.0000
  C   C83       1.0  0.00536  0.02506  0.37154  1.0000
  C   C84       1.0  0.02149  0.01275  0.36917  1.0000
  C   C85       1.0  0.00851  0.98421  0.37026  1.0000
  C   C86       1.0  0.04947  0.02883  0.37190  1.0000
  C   C87       1.0  0.09437  0.04092  0.32630  1.0000
  C   C88       1.0  0.10743  0.06861  0.30380  1.0000
  C   C89       1.0  0.13575  0.08446  0.30669  1.0000
  C   C90       1.0  0.96117  0.02156  0.38070  1.0000
  C   C91       1.0  0.94591  0.05144  0.32575  1.0000
  C   C92       1.0  0.95775  0.07913  0.30406  1.0000
  C   C93       1.0  0.94255  0.09229  0.30734  1.0000
  H   H43       1.0  0.94865  0.84491  0.29448  1.0000
  H   H44       1.0  0.96971  0.89307  0.28922  1.0000
  H   H45       1.0  0.01998  0.97504  0.37110  1.0000
  H   H46       1.0  0.94391  0.96960  0.37922  1.0000
  H   H47       1.0  0.01445  0.04571  0.37299  1.0000
  H   H48       1.0  0.14459  0.10449  0.29069  1.0000
  H   H49       1.0  0.09646  0.07741  0.28450  1.0000
  H   H50       1.0  0.95190  0.11242  0.29233  1.0000
  H   H51       1.0  0.97764  0.09005  0.28595  1.0000
  H   H52       1.0  0.05714  0.04451  0.41355  1.0000
  H   H53       1.0  0.97639  0.93255  0.41708  1.0000
  H   H54       1.0  0.94913  0.01680  0.43360  1.0000
  C   C94       1.0  0.49959  0.35815  0.34955  1.0000
  C   C95       1.0  0.47963  0.33060  0.35088  1.0000
  C   C96       1.0  0.45217  0.26950  0.39465  1.0000
  C   C97       1.0  0.43879  0.24154  0.39753  1.0000
  C   C98       1.0  0.45395  0.22826  0.40256  1.0000
  C   C99       1.0  0.44121  0.19983  0.40622  1.0000
  C   C100      1.0  0.41271  0.18459  0.40615  1.0000
  C   C101      1.0  0.39711  0.19748  0.40151  1.0000
  C   C102      1.0  0.41035  0.22602  0.39798  1.0000
  C   C103      1.0  0.36919  0.18208  0.40437  1.0000
  C   C104      1.0  0.32502  0.16686  0.34102  1.0000
  C   C105      1.0  0.31121  0.13918  0.36441  1.0000
  C   C106      1.0  0.28284  0.12410  0.36397  1.0000
  C   C107      1.0  0.45728  0.18803  0.41033  1.0000
  C   C108      1.0  0.47733  0.16493  0.34108  1.0000
  C   C109      1.0  0.47467  0.14035  0.37151  1.0000
  C   C110      1.0  0.49648  0.13553  0.36438  1.0000
  H   H55       1.0  0.49448  0.37224  0.36799  1.0000
  H   H56       1.0  0.46048  0.32528  0.37051  1.0000
  H   H57       1.0  0.39924  0.23555  0.39589  1.0000
  H   H58       1.0  0.47463  0.23952  0.40289  1.0000
  H   H59       1.0  0.40329  0.16396  0.40973  1.0000
  H   H60       1.0  0.27357  0.10405  0.38015  1.0000
  H   H61       1.0  0.32169  0.12964  0.38111  1.0000
  H   H62       1.0  0.49408  0.11760  0.38716  1.0000
  H   H63       1.0  0.45703  0.12598  0.40000  1.0000
  H   H64       1.0  0.36106  0.17015  0.45714  1.0000
  H   H65       1.0  0.45330  0.27919  0.45101  1.0000
  H   H66       1.0  0.47237  0.19574  0.45433  1.0000
  C   C111      1.0  0.63109  0.14220  0.35282  1.0000
  C   C112      1.0  0.65851  0.14932  0.35451  1.0000
  C   C113      1.0  0.71974  0.18324  0.39599  1.0000
  C   C114      1.0  0.74768  0.19778  0.39797  1.0000
  C   C115      1.0  0.76091  0.22622  0.40237  1.0000
  C   C116      1.0  0.78935  0.24196  0.40360  1.0000
  C   C117      1.0  0.80460  0.22872  0.40131  1.0000
  C   C118      1.0  0.79183  0.20020  0.39723  1.0000
  C   C119      1.0  0.76324  0.18491  0.39653  1.0000
  C   C120      1.0  0.80758  0.18794  0.39748  1.0000
  C   C121      1.0  0.81978  0.15595  0.34363  1.0000
  C   C122      1.0  0.84742  0.17081  0.32067  1.0000
  C   C123      1.0  0.86323  0.15829  0.31933  1.0000
  C   C124      1.0  0.80113  0.26984  0.40724  1.0000
  C   C125      1.0  0.82422  0.31299  0.33816  1.0000
  C   C126      1.0  0.84877  0.33489  0.36877  1.0000
  C   C127      1.0  0.85360  0.36153  0.36174  1.0000
  H   H67       1.0  0.61689  0.12355  0.37545  1.0000
  H   H68       1.0  0.66358  0.13571  0.37862  1.0000
  H   H69       1.0  0.75364  0.16426  0.39508  1.0000
  H   H70       1.0  0.74962  0.23561  0.40372  1.0000
  H   H71       1.0  0.82525  0.24003  0.40280  1.0000
  H   H72       1.0  0.88322  0.16965  0.30306  1.0000
  H   H73       1.0  0.85620  0.19081  0.30406  1.0000
  H   H74       1.0  0.87152  0.37706  0.38458  1.0000
  H   H75       1.0  0.86314  0.33161  0.39723  1.0000
  H   H76       1.0  0.82305  0.19517  0.43991  1.0000
  H   H77       1.0  0.71016  0.17631  0.45374  1.0000
  H   H78       1.0  0.79362  0.27731  0.45166  1.0000
  C   C128      1.0  0.84666  0.48941  0.34990  1.0000
  C   C129      1.0  0.83934  0.50957  0.35174  1.0000
  C   C130      1.0  0.80563  0.53690  0.39389  1.0000
  C   C131      1.0  0.79119  0.55039  0.39700  1.0000
  C   C132      1.0  0.76274  0.53528  0.40144  1.0000
  C   C133      1.0  0.74713  0.54810  0.40511  1.0000
  C   C134      1.0  0.76047  0.57661  0.40557  1.0000
  C   C135      1.0  0.78896  0.59215  0.40143  1.0000
  C   C136      1.0  0.80419  0.57884  0.39788  1.0000
  C   C137      1.0  0.80156  0.62008  0.40471  1.0000
  C   C138      1.0  0.83054  0.66433  0.34184  1.0000
  C   C139      1.0  0.81664  0.67809  0.36524  1.0000
  C   C140      1.0  0.82991  0.70647  0.36512  1.0000
  C   C141      1.0  0.71925  0.53209  0.40869  1.0000
  C   C142      1.0  0.67617  0.51228  0.33919  1.0000
  C   C143      1.0  0.65433  0.51497  0.37022  1.0000
  C   C144      1.0  0.62767  0.49321  0.36329  1.0000
  H   H79       1.0  0.86539  0.49402  0.37213  1.0000
  H   H80       1.0  0.85289  0.52831  0.37557  1.0000
  H   H81       1.0  0.82484  0.58991  0.39611  1.0000
  H   H82       1.0  0.75326  0.51459  0.40129  1.0000
  H   H83       1.0  0.74931  0.58608  0.40912  1.0000
  H   H84       1.0  0.81911  0.71571  0.38130  1.0000
  H   H85       1.0  0.79661  0.66758  0.38175  1.0000
  H   H86       1.0  0.61221  0.49563  0.38657  1.0000
  H   H87       1.0  0.65769  0.53261  0.39902  1.0000
  H   H88       1.0  0.79772  0.62816  0.45753  1.0000
  H   H89       1.0  0.81345  0.53495  0.45078  1.0000
  H   H90       1.0  0.71176  0.51699  0.45268  1.0000
  C   C145      1.0  0.19545  0.08958  0.41041  1.0000
  C   C146      1.0  0.22361  0.10499  0.41136  1.0000
  N   N7        1.0  0.23165  0.10192  0.49174  1.0000
  O   O7        1.0  0.18560  0.07679  0.48986  1.0000
  C   C147      1.0  0.20903  0.08515  0.53629  1.0000
  H   H91       1.0  0.20927  0.07954  0.60082  1.0000
  C   C148      1.0  0.88396  0.08975  0.41053  1.0000
  C   C149      1.0  0.86867  0.10263  0.41215  1.0000
  N   N8        1.0  0.85703  0.09795  0.49216  1.0000
  O   O8        1.0  0.88209  0.07695  0.48916  1.0000
  C   C150      1.0  0.86502  0.08268  0.53581  1.0000
  H   H92       1.0  0.85932  0.07637  0.59993  1.0000
  C   C151      1.0  0.88272  0.79382  0.41294  1.0000
  C   C152      1.0  0.86995  0.76565  0.41338  1.0000
  N   N9        1.0  0.85875  0.75748  0.49362  1.0000
  O   O9        1.0  0.87968  0.80355  0.49249  1.0000
  C   C153      1.0  0.86461  0.78003  0.53858  1.0000
  H   H93       1.0  0.85858  0.77970  0.60293  1.0000
  C   C154      1.0  0.54386  0.15106  0.32025  1.0000
  C   C155      1.0  0.55437  0.14485  0.39649  1.0000
  C   C156      1.0  0.57960  0.14647  0.39444  1.0000
  C   C157      1.0  0.59576  0.15381  0.31662  1.0000
  N   N10       1.0  0.58494  0.14215  0.47735  1.0000
  O   O10       1.0  0.54389  0.13981  0.48057  1.0000
  C   C158      1.0  0.56337  0.13752  0.52605  1.0000
  H   H94       1.0  0.56235  0.13423  0.59324  1.0000
  C   C159      1.0  0.83810  0.39341  0.31753  1.0000
  C   C160      1.0  0.84441  0.41018  0.39370  1.0000
  C   C161      1.0  0.84275  0.43377  0.39163  1.0000
  C   C162      1.0  0.83535  0.44255  0.31382  1.0000
  N   N11       1.0  0.84681  0.44331  0.47469  1.0000
  O   O11       1.0  0.84920  0.40462  0.47796  1.0000
  C   C163      1.0  0.85142  0.42636  0.52347  1.0000
  H   H95       1.0  0.85442  0.42849  0.59080  1.0000
  C   C164      1.0  0.59568  0.44579  0.31957  1.0000
  C   C165      1.0  0.57907  0.43549  0.39617  1.0000
  C   C166      1.0  0.55555  0.41018  0.39495  1.0000
  C   C167      1.0  0.54661  0.39387  0.31752  1.0000
  N   N12       1.0  0.54609  0.40489  0.47811  1.0000
  O   O12       1.0  0.58473  0.44605  0.48014  1.0000
  C   C168      1.0  0.56320  0.42650  0.52637  1.0000
  H   H96       1.0  0.56092  0.42776  0.59345  1.0000
