data_image0
_chemical_formula_structural       C5H3CH3C5H3CH3C5H3CH3C3H3CH3C3H3CH3C3H3CH3C3H3CH3C3H3CH3C3H3CH3NC18H12NC18H12NC18H12NC18H12NC18H12NC18H12C3H3CH3C3H3CH3C3H3CH3C5H3CH3C5H3CH3C5H3CH3C5H3CH3C5H3CH3C5H3CH3
_chemical_formula_sum              "C198 H180 N6"
_cell_length_a       52.8405
_cell_length_b       52.8405
_cell_length_c       14.9065
_cell_angle_alpha    90
_cell_angle_beta     90
_cell_angle_gamma    120

_space_group_name_H-M_alt    "P 1"
_space_group_IT_number       1

loop_
  _space_group_symop_operation_xyz
  'x, y, z'

loop_
  _atom_site_type_symbol
  _atom_site_label
  _atom_site_symmetry_multiplicity
  _atom_site_fract_x
  _atom_site_fract_y
  _atom_site_fract_z
  _atom_site_occupancy
  C   C1        1.0  0.03631  0.51876  0.34048  1.0000
  C   C2        1.0  0.02012  0.51300  0.25875  1.0000
  C   C3        1.0  0.98925  0.49333  0.25877  1.0000
  C   C4        1.0  0.97308  0.48758  0.34052  1.0000
  C   C5        1.0  0.97493  0.47819  0.17270  1.0000
  H   H1        1.0  0.98864  0.47143  0.13713  1.0000
  H   H2        1.0  0.97134  0.49276  0.12945  1.0000
  H   H3        1.0  0.95411  0.45822  0.18317  1.0000
  C   C6        1.0  0.03442  0.52815  0.17268  1.0000
  H   H4        1.0  0.05525  0.54812  0.18313  1.0000
  H   H5        1.0  0.02072  0.53492  0.13717  1.0000
  H   H6        1.0  0.03801  0.51359  0.12937  1.0000
  C   C7        1.0  0.48909  0.51911  0.34049  1.0000
  C   C8        1.0  0.49484  0.50868  0.25875  1.0000
  C   C9        1.0  0.51451  0.49748  0.25876  1.0000
  C   C10       1.0  0.52026  0.48705  0.34051  1.0000
  C   C11       1.0  0.52965  0.49830  0.17270  1.0000
  H   H7        1.0  0.53642  0.51877  0.13716  1.0000
  H   H8        1.0  0.51508  0.48015  0.12942  1.0000
  H   H9        1.0  0.54962  0.49745  0.18317  1.0000
  C   C12       1.0  0.47970  0.50784  0.17268  1.0000
  H   H10       1.0  0.45973  0.50870  0.18313  1.0000
  H   H11       1.0  0.47293  0.48737  0.13716  1.0000
  H   H12       1.0  0.49426  0.52599  0.12939  1.0000
  C   C13       1.0  0.48870  0.97151  0.34054  1.0000
  C   C14       1.0  0.49916  0.98769  0.25881  1.0000
  C   C15       1.0  0.51035  0.01856  0.25879  1.0000
  C   C16       1.0  0.52075  0.03474  0.34054  1.0000
  C   C17       1.0  0.50953  0.03287  0.17270  1.0000
  H   H13       1.0  0.48907  0.01916  0.13713  1.0000
  H   H14       1.0  0.52769  0.03646  0.12947  1.0000
  H   H15       1.0  0.51038  0.05369  0.18313  1.0000
  C   C18       1.0  0.50001  0.97339  0.17277  1.0000
  H   H16       1.0  0.49916  0.95256  0.18327  1.0000
  H   H17       1.0  0.52049  0.98709  0.13728  1.0000
  H   H18       1.0  0.48187  0.96980  0.12943  1.0000
  C   C19       1.0  0.26747  0.56111  0.26544  1.0000
  C   C20       1.0  0.29182  0.55682  0.25141  1.0000
  C   C21       1.0  0.25617  0.57052  0.18734  1.0000
  H   H19       1.0  0.24397  0.58118  0.20749  1.0000
  H   H20       1.0  0.24211  0.55172  0.14548  1.0000
  H   H21       1.0  0.27420  0.58663  0.14658  1.0000
  C   C22       1.0  0.29838  0.55094  0.15821  1.0000
  H   H22       1.0  0.31187  0.54069  0.15718  1.0000
  H   H23       1.0  0.30952  0.57123  0.11997  1.0000
  H   H24       1.0  0.27822  0.53576  0.12352  1.0000
  C   C23       1.0  0.44673  0.70794  0.26539  1.0000
  C   C24       1.0  0.45103  0.73658  0.25136  1.0000
  C   C25       1.0  0.43727  0.68722  0.18733  1.0000
  H   H25       1.0  0.42660  0.66435  0.20752  1.0000
  H   H26       1.0  0.45605  0.69194  0.14539  1.0000
  H   H27       1.0  0.42114  0.68914  0.14664  1.0000
  C   C26       1.0  0.45689  0.74901  0.15814  1.0000
  H   H28       1.0  0.46714  0.77276  0.15708  1.0000
  H   H29       1.0  0.43659  0.73986  0.11995  1.0000
  H   H30       1.0  0.47206  0.74402  0.12343  1.0000
  C   C27       1.0  0.29992  0.74034  0.26535  1.0000
  C   C28       1.0  0.27129  0.71599  0.25124  1.0000
  C   C29       1.0  0.32068  0.75160  0.18737  1.0000
  H   H31       1.0  0.34354  0.76380  0.20766  1.0000
  H   H32       1.0  0.31598  0.76565  0.14534  1.0000
  H   H33       1.0  0.31878  0.73355  0.14675  1.0000
  C   C30       1.0  0.25890  0.70942  0.15797  1.0000
  H   H34       1.0  0.23516  0.69593  0.15682  1.0000
  H   H35       1.0  0.26807  0.69825  0.11990  1.0000
  H   H36       1.0  0.26392  0.72957  0.12318  1.0000
  C   C31       1.0  0.74188  0.44510  0.26552  1.0000
  C   C32       1.0  0.71754  0.44938  0.25137  1.0000
  C   C33       1.0  0.75315  0.43559  0.18756  1.0000
  H   H37       1.0  0.76538  0.42498  0.20786  1.0000
  H   H38       1.0  0.76717  0.45434  0.14545  1.0000
  H   H39       1.0  0.73509  0.41941  0.14702  1.0000
  C   C34       1.0  0.71098  0.45521  0.15808  1.0000
  H   H40       1.0  0.69748  0.46545  0.15690  1.0000
  H   H41       1.0  0.69985  0.43489  0.11995  1.0000
  H   H42       1.0  0.73115  0.47037  0.12338  1.0000
  C   C35       1.0  0.56276  0.29833  0.26536  1.0000
  C   C36       1.0  0.55848  0.26971  0.25121  1.0000
  C   C37       1.0  0.57226  0.31910  0.18739  1.0000
  H   H43       1.0  0.58292  0.34195  0.20770  1.0000
  H   H44       1.0  0.55349  0.31441  0.14541  1.0000
  H   H45       1.0  0.58839  0.31719  0.14671  1.0000
  C   C38       1.0  0.55265  0.25732  0.15794  1.0000
  H   H46       1.0  0.54238  0.23358  0.15679  1.0000
  H   H47       1.0  0.57297  0.26648  0.11984  1.0000
  H   H48       1.0  0.53751  0.26235  0.12319  1.0000
  C   C39       1.0  0.70949  0.26599  0.26546  1.0000
  C   C40       1.0  0.73812  0.29033  0.25139  1.0000
  C   C41       1.0  0.68875  0.25471  0.18743  1.0000
  H   H49       1.0  0.66589  0.24254  0.20767  1.0000
  H   H50       1.0  0.69344  0.24063  0.14553  1.0000
  H   H51       1.0  0.69067  0.27275  0.14669  1.0000
  C   C42       1.0  0.75053  0.29690  0.15814  1.0000
  H   H52       1.0  0.77428  0.31037  0.15706  1.0000
  H   H53       1.0  0.74139  0.30806  0.12001  1.0000
  H   H54       1.0  0.74552  0.27673  0.12340  1.0000
  N   N1        1.0  0.16295  0.58146  0.33901  1.0000
  C   C43       1.0  0.18023  0.61174  0.31248  1.0000
  C   C44       1.0  0.13151  0.56586  0.33945  1.0000
  C   C45       1.0  0.17969  0.56798  0.36604  1.0000
  C   C46       1.0  0.20290  0.58261  0.42814  1.0000
  C   C47       1.0  0.22749  0.57883  0.42524  1.0000
  C   C48       1.0  0.22847  0.55812  0.36711  1.0000
  C   C49       1.0  0.20302  0.53997  0.31679  1.0000
  C   C50       1.0  0.17971  0.54569  0.31337  1.0000
  C   C51       1.0  0.17928  0.63427  0.36109  1.0000
  C   C52       1.0  0.20236  0.66343  0.35755  1.0000
  C   C53       1.0  0.22867  0.67073  0.31214  1.0000
  C   C54       1.0  0.22884  0.64874  0.25824  1.0000
  C   C55       1.0  0.20447  0.62027  0.25456  1.0000
  C   C56       1.0  0.11546  0.57198  0.40315  1.0000
  C   C57       1.0  0.08466  0.55779  0.40050  1.0000
  C   C58       1.0  0.06811  0.53443  0.34037  1.0000
  C   C59       1.0  0.08430  0.52723  0.28002  1.0000
  C   C60       1.0  0.11510  0.54352  0.27657  1.0000
  H   H55       1.0  0.20121  0.67857  0.39750  1.0000
  H   H56       1.0  0.16289  0.62956  0.40540  1.0000
  H   H57       1.0  0.20667  0.60469  0.22042  1.0000
  H   H58       1.0  0.24747  0.65274  0.22528  1.0000
  H   H59       1.0  0.20453  0.59984  0.46415  1.0000
  H   H60       1.0  0.24560  0.59291  0.46131  1.0000
  H   H61       1.0  0.12603  0.58701  0.45242  1.0000
  H   H62       1.0  0.07432  0.56420  0.44533  1.0000
  H   H63       1.0  0.07368  0.51040  0.23557  1.0000
  H   H64       1.0  0.12539  0.53873  0.22727  1.0000
  H   H65       1.0  0.16428  0.53522  0.26532  1.0000
  H   H66       1.0  0.20283  0.52485  0.27344  1.0000
  N   N2        1.0  0.42637  0.58304  0.33912  1.0000
  C   C61       1.0  0.39609  0.57003  0.31263  1.0000
  C   C62       1.0  0.44198  0.56720  0.33952  1.0000
  C   C63       1.0  0.43989  0.61329  0.36594  1.0000
  C   C64       1.0  0.42522  0.62188  0.42783  1.0000
  C   C65       1.0  0.42908  0.65027  0.42531  1.0000
  C   C66       1.0  0.44974  0.67194  0.36705  1.0000
  C   C67       1.0  0.46786  0.66461  0.31657  1.0000
  C   C68       1.0  0.46218  0.63560  0.31329  1.0000
  C   C69       1.0  0.37357  0.54659  0.36138  1.0000
  C   C70       1.0  0.34444  0.54059  0.35810  1.0000
  C   C71       1.0  0.33711  0.55953  0.31240  1.0000
  C   C72       1.0  0.35909  0.58164  0.25832  1.0000
  C   C73       1.0  0.38755  0.58572  0.25464  1.0000
  C   C74       1.0  0.43586  0.54503  0.40321  1.0000
  C   C75       1.0  0.45005  0.52842  0.40052  1.0000
  C   C76       1.0  0.47341  0.53524  0.34039  1.0000
  C   C77       1.0  0.48062  0.55864  0.28007  1.0000
  C   C78       1.0  0.46432  0.57314  0.27664  1.0000
  H   H67       1.0  0.32927  0.52425  0.39785  1.0000
  H   H68       1.0  0.37828  0.53491  0.40569  1.0000
  H   H69       1.0  0.40312  0.60347  0.22038  1.0000
  H   H70       1.0  0.35508  0.59623  0.22520  1.0000
  H   H71       1.0  0.40811  0.60631  0.46433  1.0000
  H   H72       1.0  0.41503  0.65432  0.46156  1.0000
  H   H73       1.0  0.42084  0.54057  0.45248  1.0000
  H   H74       1.0  0.44364  0.51166  0.44534  1.0000
  H   H75       1.0  0.49744  0.56485  0.23561  1.0000
  H   H76       1.0  0.46911  0.58823  0.22736  1.0000
  H   H77       1.0  0.47259  0.63064  0.26500  1.0000
  H   H78       1.0  0.48294  0.67953  0.27313  1.0000
  N   N3        1.0  0.42476  0.84487  0.33917  1.0000
  C   C79       1.0  0.43777  0.82758  0.31273  1.0000
  C   C80       1.0  0.44060  0.87631  0.33958  1.0000
  C   C81       1.0  0.39450  0.82813  0.36593  1.0000
  C   C82       1.0  0.38593  0.80491  0.42795  1.0000
  C   C83       1.0  0.35755  0.78036  0.42526  1.0000
  C   C84       1.0  0.33588  0.77937  0.36705  1.0000
  C   C85       1.0  0.34320  0.80480  0.31652  1.0000
  C   C86       1.0  0.37223  0.82814  0.31318  1.0000
  C   C87       1.0  0.46125  0.82857  0.36143  1.0000
  C   C88       1.0  0.46726  0.80544  0.35808  1.0000
  C   C89       1.0  0.44834  0.77918  0.31234  1.0000
  C   C90       1.0  0.42621  0.77902  0.25832  1.0000
  C   C91       1.0  0.42209  0.80338  0.25466  1.0000
  C   C92       1.0  0.46275  0.89237  0.40333  1.0000
  C   C93       1.0  0.47936  0.92316  0.40064  1.0000
  C   C94       1.0  0.47257  0.93971  0.34045  1.0000
  C   C95       1.0  0.44918  0.92351  0.28006  1.0000
  C   C96       1.0  0.43469  0.89271  0.27662  1.0000
  H   H79       1.0  0.48362  0.80663  0.39779  1.0000
  H   H80       1.0  0.47291  0.84496  0.40574  1.0000
  H   H81       1.0  0.40433  0.80120  0.22043  1.0000
  H   H82       1.0  0.41162  0.76042  0.22520  1.0000
  H   H83       1.0  0.40151  0.80339  0.46451  1.0000
  H   H84       1.0  0.35347  0.76231  0.46174  1.0000
  H   H85       1.0  0.46718  0.88180  0.45267  1.0000
  H   H86       1.0  0.49610  0.93351  0.44553  1.0000
  H   H87       1.0  0.44300  0.93413  0.23554  1.0000
  H   H88       1.0  0.41962  0.88242  0.22728  1.0000
  H   H89       1.0  0.37720  0.84349  0.26484  1.0000
  H   H90       1.0  0.32833  0.80499  0.27294  1.0000
  N   N4        1.0  0.84643  0.42485  0.33927  1.0000
  C   C97       1.0  0.82912  0.39458  0.31261  1.0000
  C   C98       1.0  0.87787  0.44046  0.33964  1.0000
  C   C99       1.0  0.82966  0.43833  0.36615  1.0000
  C   C100      1.0  0.80646  0.42369  0.42819  1.0000
  C   C101      1.0  0.78190  0.42751  0.42550  1.0000
  C   C102      1.0  0.78091  0.44819  0.36727  1.0000
  C   C103      1.0  0.80635  0.46633  0.31682  1.0000
  C   C104      1.0  0.82966  0.46060  0.31339  1.0000
  C   C105      1.0  0.83011  0.37209  0.36134  1.0000
  C   C106      1.0  0.80701  0.34293  0.35788  1.0000
  C   C107      1.0  0.78072  0.33561  0.31232  1.0000
  C   C108      1.0  0.78057  0.35759  0.25826  1.0000
  C   C109      1.0  0.80495  0.38604  0.25442  1.0000
  C   C110      1.0  0.89394  0.43435  0.40330  1.0000
  C   C111      1.0  0.92474  0.44854  0.40059  1.0000
  C   C112      1.0  0.94128  0.47190  0.34046  1.0000
  C   C113      1.0  0.92507  0.47911  0.28017  1.0000
  C   C114      1.0  0.89427  0.46280  0.27674  1.0000
  H   H91       1.0  0.80819  0.32781  0.39784  1.0000
  H   H92       1.0  0.84647  0.37683  0.40575  1.0000
  H   H93       1.0  0.80279  0.40166  0.22039  1.0000
  H   H94       1.0  0.76196  0.35357  0.22522  1.0000
  H   H95       1.0  0.80494  0.40659  0.46473  1.0000
  H   H96       1.0  0.76384  0.41352  0.46195  1.0000
  H   H97       1.0  0.88338  0.41934  0.45261  1.0000
  H   H98       1.0  0.93509  0.44214  0.44542  1.0000
  H   H99       1.0  0.93568  0.49593  0.23568  1.0000
  H   H100      1.0  0.88397  0.46759  0.22745  1.0000
  H   H101      1.0  0.84499  0.47096  0.26498  1.0000
  H   H102      1.0  0.80650  0.48134  0.27310  1.0000
  N   N5        1.0  0.58301  0.42315  0.33916  1.0000
  C   C115      1.0  0.61328  0.43613  0.31247  1.0000
  C   C116      1.0  0.56738  0.43897  0.33958  1.0000
  C   C117      1.0  0.56956  0.39292  0.36610  1.0000
  C   C118      1.0  0.58421  0.38433  0.42803  1.0000
  C   C119      1.0  0.58039  0.35595  0.42533  1.0000
  C   C120      1.0  0.55970  0.33428  0.36713  1.0000
  C   C121      1.0  0.54159  0.34161  0.31665  1.0000
  C   C122      1.0  0.54727  0.37064  0.31337  1.0000
  C   C123      1.0  0.63577  0.45965  0.36108  1.0000
  C   C124      1.0  0.66492  0.46568  0.35772  1.0000
  C   C125      1.0  0.67225  0.44672  0.31218  1.0000
  C   C126      1.0  0.65028  0.42459  0.25813  1.0000
  C   C127      1.0  0.62182  0.42050  0.25428  1.0000
  C   C128      1.0  0.57349  0.46114  0.40327  1.0000
  C   C129      1.0  0.55929  0.47773  0.40061  1.0000
  C   C130      1.0  0.53593  0.47093  0.34045  1.0000
  C   C131      1.0  0.52872  0.44751  0.28017  1.0000
  C   C132      1.0  0.54504  0.43303  0.27669  1.0000
  H   H103      1.0  0.68003  0.48198  0.39771  1.0000
  H   H104      1.0  0.63103  0.47122  0.40569  1.0000
  H   H105      1.0  0.60620  0.40271  0.22030  1.0000
  H   H106      1.0  0.65430  0.40998  0.22512  1.0000
  H   H107      1.0  0.60132  0.39991  0.46455  1.0000
  H   H108      1.0  0.59437  0.35188  0.46176  1.0000
  H   H109      1.0  0.58851  0.46560  0.45255  1.0000
  H   H110      1.0  0.56571  0.49451  0.44537  1.0000
  H   H111      1.0  0.51192  0.44132  0.23563  1.0000
  H   H112      1.0  0.54026  0.41796  0.22738  1.0000
  H   H113      1.0  0.53688  0.37560  0.26504  1.0000
  H   H114      1.0  0.52652  0.32674  0.27307  1.0000
  N   N6        1.0  0.58467  0.16139  0.33921  1.0000
  C   C133      1.0  0.57170  0.17868  0.31243  1.0000
  C   C134      1.0  0.56885  0.12995  0.33960  1.0000
  C   C135      1.0  0.61492  0.17818  0.36611  1.0000
  C   C136      1.0  0.62346  0.20139  0.42815  1.0000
  C   C137      1.0  0.65183  0.22596  0.42532  1.0000
  C   C138      1.0  0.67351  0.22696  0.36713  1.0000
  C   C139      1.0  0.66619  0.20153  0.31663  1.0000
  C   C140      1.0  0.63719  0.17815  0.31345  1.0000
  C   C141      1.0  0.54819  0.17768  0.36100  1.0000
  C   C142      1.0  0.54214  0.20078  0.35753  1.0000
  C   C143      1.0  0.56113  0.22708  0.31204  1.0000
  C   C144      1.0  0.58326  0.22722  0.25797  1.0000
  C   C145      1.0  0.58734  0.20285  0.25421  1.0000
  C   C146      1.0  0.54666  0.11389  0.40326  1.0000
  C   C147      1.0  0.53007  0.08309  0.40060  1.0000
  C   C148      1.0  0.53688  0.06655  0.34047  1.0000
  C   C149      1.0  0.56029  0.08275  0.28017  1.0000
  C   C150      1.0  0.57479  0.11355  0.27673  1.0000
  H   H115      1.0  0.52589  0.19966  0.39760  1.0000
  H   H116      1.0  0.53663  0.16138  0.40569  1.0000
  H   H117      1.0  0.60514  0.20501  0.22027  1.0000
  H   H118      1.0  0.59788  0.24585  0.22503  1.0000
  H   H119      1.0  0.60783  0.20288  0.46445  1.0000
  H   H120      1.0  0.65589  0.24403  0.46173  1.0000
  H   H121      1.0  0.54220  0.12445  0.45253  1.0000
  H   H122      1.0  0.51329  0.07274  0.44535  1.0000
  H   H123      1.0  0.56651  0.07213  0.23571  1.0000
  H   H124      1.0  0.58987  0.12384  0.22744  1.0000
  H   H125      1.0  0.63221  0.16278  0.26516  1.0000
  H   H126      1.0  0.68110  0.20132  0.27325  1.0000
  C   C151      1.0  0.98930  0.49780  0.42227  1.0000
  C   C152      1.0  0.02010  0.50855  0.42225  1.0000
  C   C153      1.0  0.97512  0.49885  0.50835  1.0000
  H   H127      1.0  0.95445  0.49832  0.49795  1.0000
  H   H128      1.0  0.98904  0.51925  0.54391  1.0000
  H   H129      1.0  0.97128  0.48061  0.55160  1.0000
  C   C154      1.0  0.03428  0.50749  0.50831  1.0000
  H   H130      1.0  0.05495  0.50802  0.49786  1.0000
  H   H131      1.0  0.02036  0.48708  0.54384  1.0000
  H   H132      1.0  0.03812  0.52573  0.55158  1.0000
  C   C155      1.0  0.51005  0.49306  0.42227  1.0000
  C   C156      1.0  0.49929  0.51311  0.42226  1.0000
  C   C157      1.0  0.50899  0.47783  0.50834  1.0000
  H   H133      1.0  0.50951  0.45768  0.49792  1.0000
  H   H134      1.0  0.48858  0.47135  0.54389  1.0000
  H   H135      1.0  0.52723  0.49222  0.55160  1.0000
  C   C158      1.0  0.50036  0.52835  0.50831  1.0000
  H   H136      1.0  0.49983  0.54849  0.49787  1.0000
  H   H137      1.0  0.52077  0.53484  0.54386  1.0000
  H   H138      1.0  0.48212  0.51396  0.55158  1.0000
  C   C159      1.0  0.51472  0.01852  0.42231  1.0000
  C   C160      1.0  0.49467  0.98773  0.42229  1.0000
  C   C161      1.0  0.52994  0.03270  0.50841  1.0000
  H   H139      1.0  0.55009  0.05337  0.49801  1.0000
  H   H140      1.0  0.53641  0.01877  0.54398  1.0000
  H   H141      1.0  0.51554  0.03655  0.55162  1.0000
  C   C162      1.0  0.47941  0.97355  0.50833  1.0000
  H   H142      1.0  0.45927  0.95288  0.49786  1.0000
  H   H143      1.0  0.47292  0.98747  0.54384  1.0000
  H   H144      1.0  0.49380  0.96970  0.55164  1.0000
  C   C163      1.0  0.30926  0.55795  0.32617  1.0000
  C   C164      1.0  0.29931  0.55897  0.41475  1.0000
  C   C165      1.0  0.27044  0.55421  0.42753  1.0000
  C   C166      1.0  0.25519  0.55743  0.35334  1.0000
  C   C167      1.0  0.25663  0.54579  0.51874  1.0000
  H   H145      1.0  0.26157  0.53014  0.55038  1.0000
  H   H146      1.0  0.23285  0.53507  0.51658  1.0000
  H   H147      1.0  0.26475  0.56508  0.56144  1.0000
  C   C168      1.0  0.31884  0.56603  0.49517  1.0000
  H   H148      1.0  0.34199  0.57790  0.47810  1.0000
  H   H149      1.0  0.31400  0.54597  0.53022  1.0000
  H   H150      1.0  0.31579  0.58026  0.54155  1.0000
  C   C169      1.0  0.44993  0.75292  0.32612  1.0000
  C   C170      1.0  0.44894  0.74195  0.41470  1.0000
  C   C171      1.0  0.45370  0.71784  0.42745  1.0000
  C   C172      1.0  0.45045  0.69936  0.35327  1.0000
  C   C173      1.0  0.46217  0.71247  0.51862  1.0000
  H   H151      1.0  0.47783  0.73308  0.55019  1.0000
  H   H152      1.0  0.47289  0.69942  0.51640  1.0000
  H   H153      1.0  0.44290  0.70132  0.56140  1.0000
  C   C174      1.0  0.44190  0.75442  0.49514  1.0000
  H   H154      1.0  0.43000  0.76568  0.47811  1.0000
  H   H155      1.0  0.46196  0.76966  0.53014  1.0000
  H   H156      1.0  0.42768  0.73715  0.54157  1.0000
  C   C175      1.0  0.25493  0.69858  0.32598  1.0000
  C   C176      1.0  0.26586  0.70856  0.41459  1.0000
  C   C177      1.0  0.28996  0.73743  0.42737  1.0000
  C   C178      1.0  0.30847  0.75266  0.35324  1.0000
  C   C179      1.0  0.29530  0.75126  0.51854  1.0000
  H   H157      1.0  0.27469  0.74640  0.54989  1.0000
  H   H158      1.0  0.30844  0.77503  0.51640  1.0000
  H   H159      1.0  0.30634  0.74307  0.56149  1.0000
  C   C180      1.0  0.25334  0.68905  0.49504  1.0000
  H   H160      1.0  0.24197  0.66590  0.47805  1.0000
  H   H161      1.0  0.23821  0.69398  0.53017  1.0000
  H   H162      1.0  0.27062  0.69203  0.54133  1.0000
  C   C181      1.0  0.70010  0.44831  0.32607  1.0000
  C   C182      1.0  0.71007  0.44735  0.41470  1.0000
  C   C183      1.0  0.73894  0.45214  0.42753  1.0000
  C   C184      1.0  0.75418  0.44886  0.35342  1.0000
  C   C185      1.0  0.75276  0.46063  0.51871  1.0000
  H   H163      1.0  0.74786  0.47635  0.55009  1.0000
  H   H164      1.0  0.77653  0.47130  0.51658  1.0000
  H   H165      1.0  0.74459  0.44139  0.56163  1.0000
  C   C186      1.0  0.69055  0.44034  0.49511  1.0000
  H   H166      1.0  0.66739  0.42851  0.47808  1.0000
  H   H167      1.0  0.69543  0.46041  0.53017  1.0000
  H   H168      1.0  0.69355  0.42608  0.54148  1.0000
  C   C187      1.0  0.55956  0.25335  0.32592  1.0000
  C   C188      1.0  0.56053  0.26427  0.41454  1.0000
  C   C189      1.0  0.55575  0.28837  0.42738  1.0000
  C   C190      1.0  0.55901  0.30688  0.35327  1.0000
  C   C191      1.0  0.54727  0.29370  0.51857  1.0000
  H   H169      1.0  0.53151  0.27308  0.54990  1.0000
  H   H170      1.0  0.53663  0.30683  0.51648  1.0000
  H   H171      1.0  0.56650  0.30473  0.56151  1.0000
  C   C192      1.0  0.56755  0.25177  0.49496  1.0000
  H   H172      1.0  0.57931  0.24039  0.47792  1.0000
  H   H173      1.0  0.54750  0.23665  0.53018  1.0000
  H   H174      1.0  0.58188  0.26906  0.54118  1.0000
  C   C193      1.0  0.75446  0.30776  0.32613  1.0000
  C   C194      1.0  0.74352  0.29778  0.41473  1.0000
  C   C195      1.0  0.71941  0.26891  0.42750  1.0000
  C   C196      1.0  0.70092  0.25367  0.35335  1.0000
  C   C197      1.0  0.71406  0.25508  0.51866  1.0000
  H   H175      1.0  0.73467  0.25997  0.55011  1.0000
  H   H176      1.0  0.70096  0.23131  0.51650  1.0000
  H   H177      1.0  0.70298  0.26324  0.56155  1.0000
  C   C198      1.0  0.75601  0.31729  0.49518  1.0000
  H   H178      1.0  0.76734  0.34045  0.47817  1.0000
  H   H179      1.0  0.77118  0.31240  0.53028  1.0000
  H   H180      1.0  0.73873  0.31428  0.54150  1.0000
