data_image0
_chemical_formula_structural       C3H2CH2C3H2CH2C3H2CH2C6H3NHNHNHC6H3NHNHNHC3N2O4CH2C3N2O4CH2C3N2O4CH2C3H2CH2C3H2CH2C3H2CH2C6H3NHNHNHC6H3NHNHNHC3N2O4CH2C3N2O4CH2C3N2O4CH2C3H2CH2C3H2CH2C3H2CH2C6H3NHNHNHC6H3NHNHNHC3N2O4CH2C3N2O4CH2C3N2O4CH2C3H2CH2C3H2CH2C3H2CH2C6H3NHNHNHC6H3NHNHNHC3N2O4CH2C3N2O4CH2C3N2O4CH2
_chemical_formula_sum              "C144 H120 N48 O48"
_cell_length_a       43.767
_cell_length_b       43.767
_cell_length_c       15.0231
_cell_angle_alpha    90
_cell_angle_beta     90
_cell_angle_gamma    120

_space_group_name_H-M_alt    "P 1"
_space_group_IT_number       1

loop_
  _space_group_symop_operation_xyz
  'x, y, z'

loop_
  _atom_site_type_symbol
  _atom_site_label
  _atom_site_symmetry_multiplicity
  _atom_site_fract_x
  _atom_site_fract_y
  _atom_site_fract_z
  _atom_site_occupancy
  C   C1        1.0  0.28042  0.24357  0.35239  1.0000
  C   C2        1.0  0.27704  0.25874  0.27275  1.0000
  C   C3        1.0  0.25340  0.27136  0.26552  1.0000
  H   H1        1.0  0.25251  0.28222  0.20610  1.0000
  H   H2        1.0  0.29191  0.26066  0.21812  1.0000
  C   C4        1.0  0.30517  0.22928  0.34923  1.0000
  H   H3        1.0  0.32995  0.24867  0.31765  1.0000
  H   H4        1.0  0.29283  0.20617  0.30558  1.0000
  C   C5        1.0  0.25451  0.03647  0.35233  1.0000
  C   C6        1.0  0.23933  0.01791  0.27271  1.0000
  C   C7        1.0  0.22668  0.48165  0.26552  1.0000
  H   H5        1.0  0.21581  0.46989  0.20609  1.0000
  H   H6        1.0  0.23742  0.03087  0.21805  1.0000
  C   C8        1.0  0.26896  0.07553  0.34903  1.0000
  H   H7        1.0  0.24973  0.08104  0.31693  1.0000
  H   H8        1.0  0.29218  0.08621  0.30580  1.0000
  C   C9        1.0  0.46159  0.21764  0.35241  1.0000
  C   C10       1.0  0.48013  0.22101  0.27277  1.0000
  C   C11       1.0  0.01639  0.24465  0.26553  1.0000
  H   H9        1.0  0.02815  0.24553  0.20610  1.0000
  H   H10       1.0  0.46718  0.20613  0.21815  1.0000
  C   C12       1.0  0.42255  0.19288  0.34926  1.0000
  H   H11       1.0  0.41717  0.16809  0.31775  1.0000
  H   H12       1.0  0.41177  0.20519  0.30555  1.0000
  C   C13       1.0  0.18470  0.31442  0.23883  1.0000
  C   C14       1.0  0.14744  0.29547  0.23859  1.0000
  C   C15       1.0  0.12815  0.31335  0.23885  1.0000
  C   C16       1.0  0.14647  0.35061  0.23859  1.0000
  C   C17       1.0  0.18363  0.36990  0.23885  1.0000
  C   C18       1.0  0.20258  0.35158  0.23857  1.0000
  H   H13       1.0  0.13261  0.36374  0.23907  1.0000
  H   H14       1.0  0.22957  0.36544  0.23907  1.0000
  H   H15       1.0  0.13431  0.26848  0.23906  1.0000
  N   N1        1.0  0.20493  0.29741  0.24026  1.0000
  H   H16       1.0  0.19591  0.27849  0.19129  1.0000
  N   N2        1.0  0.20064  0.40713  0.24028  1.0000
  H   H17       1.0  0.21955  0.41703  0.19128  1.0000
  N   N3        1.0  0.09092  0.29312  0.24026  1.0000
  H   H18       1.0  0.08102  0.30213  0.19127  1.0000
  C   C19       1.0  0.32386  0.19327  0.43367  1.0000
  C   C20       1.0  0.35935  0.20133  0.43414  1.0000
  C   C21       1.0  0.36785  0.17422  0.43367  1.0000
  C   C22       1.0  0.34041  0.13872  0.43405  1.0000
  C   C23       1.0  0.30479  0.13022  0.43358  1.0000
  C   C24       1.0  0.29674  0.15766  0.43409  1.0000
  H   H19       1.0  0.34642  0.11893  0.43469  1.0000
  H   H20       1.0  0.27094  0.15165  0.43473  1.0000
  H   H21       1.0  0.37914  0.22713  0.43484  1.0000
  N   N4        1.0  0.31434  0.21970  0.43596  1.0000
  H   H22       1.0  0.33251  0.24183  0.46971  1.0000
  N   N5        1.0  0.27836  0.09428  0.43579  1.0000
  H   H23       1.0  0.25615  0.09033  0.46909  1.0000
  N   N6        1.0  0.40378  0.18373  0.43598  1.0000
  H   H24       1.0  0.40775  0.16558  0.46980  1.0000
  C   C25       1.0  0.23139  0.26888  0.33726  1.0000
  C   C26       1.0  0.23440  0.25366  0.41858  1.0000
  C   C27       1.0  0.25858  0.24087  0.42585  1.0000
  N   N7        1.0  0.21407  0.25018  0.49553  1.0000
  N   N8        1.0  0.26077  0.22455  0.50526  1.0000
  O   O1        1.0  0.22028  0.27918  0.52790  1.0000
  O   O2        1.0  0.27111  0.24512  0.57090  1.0000
  O   O3        1.0  0.18152  0.23003  0.48505  1.0000
  O   O4        1.0  0.23258  0.19677  0.52389  1.0000
  C   C28       1.0  0.20573  0.28187  0.32778  1.0000
  H   H25       1.0  0.21236  0.30214  0.37850  1.0000
  H   H26       1.0  0.17923  0.25996  0.34154  1.0000
  C   C29       1.0  0.22919  0.46213  0.33725  1.0000
  C   C30       1.0  0.24445  0.48037  0.41851  1.0000
  C   C31       1.0  0.25727  0.01735  0.42574  1.0000
  N   N9        1.0  0.24797  0.46354  0.49545  1.0000
  N   N10       1.0  0.27365  0.03589  0.50507  1.0000
  O   O5        1.0  0.21899  0.44075  0.52790  1.0000
  O   O6        1.0  0.25313  0.02569  0.57080  1.0000
  O   O7        1.0  0.26811  0.45114  0.48490  1.0000
  O   O8        1.0  0.30144  0.03546  0.52357  1.0000
  C   C32       1.0  0.21620  0.42348  0.32778  1.0000
  H   H27       1.0  0.19594  0.40985  0.37853  1.0000
  H   H28       1.0  0.23811  0.41888  0.34151  1.0000
  C   C33       1.0  0.03592  0.26667  0.33726  1.0000
  C   C34       1.0  0.01770  0.26367  0.41856  1.0000
  C   C35       1.0  0.48073  0.23949  0.42585  1.0000
  N   N11       1.0  0.03454  0.28401  0.49550  1.0000
  N   N12       1.0  0.46222  0.23730  0.50526  1.0000
  O   O9        1.0  0.05734  0.27782  0.52790  1.0000
  O   O10       1.0  0.47245  0.22698  0.57091  1.0000
  O   O11       1.0  0.04694  0.31656  0.48500  1.0000
  O   O12       1.0  0.46263  0.26550  0.52386  1.0000
  C   C36       1.0  0.07457  0.29233  0.32776  1.0000
  H   H29       1.0  0.08821  0.28571  0.37851  1.0000
  H   H30       1.0  0.07917  0.31884  0.34150  1.0000
  C   C37       1.0  0.28042  0.74357  0.35239  1.0000
  C   C38       1.0  0.27704  0.75874  0.27275  1.0000
  C   C39       1.0  0.25340  0.77136  0.26552  1.0000
  H   H31       1.0  0.25251  0.78222  0.20610  1.0000
  H   H32       1.0  0.29191  0.76066  0.21812  1.0000
  C   C40       1.0  0.30517  0.72928  0.34923  1.0000
  H   H33       1.0  0.32995  0.74867  0.31765  1.0000
  H   H34       1.0  0.29283  0.70618  0.30558  1.0000
  C   C41       1.0  0.25451  0.53647  0.35233  1.0000
  C   C42       1.0  0.23933  0.51792  0.27271  1.0000
  C   C43       1.0  0.22668  0.98165  0.26552  1.0000
  H   H35       1.0  0.21581  0.96989  0.20609  1.0000
  H   H36       1.0  0.23742  0.53087  0.21805  1.0000
  C   C44       1.0  0.26896  0.57553  0.34903  1.0000
  H   H37       1.0  0.24974  0.58104  0.31693  1.0000
  H   H38       1.0  0.29218  0.58621  0.30580  1.0000
  C   C45       1.0  0.46159  0.71764  0.35241  1.0000
  C   C46       1.0  0.48013  0.72101  0.27277  1.0000
  C   C47       1.0  0.01639  0.74465  0.26553  1.0000
  H   H39       1.0  0.02815  0.74553  0.20610  1.0000
  H   H40       1.0  0.46718  0.70613  0.21815  1.0000
  C   C48       1.0  0.42255  0.69288  0.34926  1.0000
  H   H41       1.0  0.41717  0.66809  0.31775  1.0000
  H   H42       1.0  0.41177  0.70519  0.30555  1.0000
  C   C49       1.0  0.18470  0.81442  0.23883  1.0000
  C   C50       1.0  0.14744  0.79547  0.23859  1.0000
  C   C51       1.0  0.12815  0.81335  0.23885  1.0000
  C   C52       1.0  0.14647  0.85061  0.23859  1.0000
  C   C53       1.0  0.18363  0.86990  0.23885  1.0000
  C   C54       1.0  0.20258  0.85158  0.23857  1.0000
  H   H43       1.0  0.13261  0.86374  0.23907  1.0000
  H   H44       1.0  0.22957  0.86545  0.23907  1.0000
  H   H45       1.0  0.13431  0.76848  0.23906  1.0000
  N   N13       1.0  0.20493  0.79741  0.24026  1.0000
  H   H46       1.0  0.19591  0.77849  0.19129  1.0000
  N   N14       1.0  0.20064  0.90713  0.24028  1.0000
  H   H47       1.0  0.21955  0.91703  0.19128  1.0000
  N   N15       1.0  0.09092  0.79312  0.24026  1.0000
  H   H48       1.0  0.08102  0.80214  0.19127  1.0000
  C   C55       1.0  0.32386  0.69327  0.43367  1.0000
  C   C56       1.0  0.35935  0.70133  0.43414  1.0000
  C   C57       1.0  0.36785  0.67422  0.43367  1.0000
  C   C58       1.0  0.34041  0.63872  0.43405  1.0000
  C   C59       1.0  0.30479  0.63022  0.43358  1.0000
  C   C60       1.0  0.29674  0.65766  0.43409  1.0000
  H   H49       1.0  0.34642  0.61893  0.43469  1.0000
  H   H50       1.0  0.27094  0.65165  0.43473  1.0000
  H   H51       1.0  0.37914  0.72713  0.43484  1.0000
  N   N16       1.0  0.31435  0.71970  0.43596  1.0000
  H   H52       1.0  0.33251  0.74182  0.46971  1.0000
  N   N17       1.0  0.27836  0.59428  0.43579  1.0000
  H   H53       1.0  0.25615  0.59033  0.46909  1.0000
  N   N18       1.0  0.40379  0.68373  0.43598  1.0000
  H   H54       1.0  0.40775  0.66558  0.46980  1.0000
  C   C61       1.0  0.23139  0.76888  0.33726  1.0000
  C   C62       1.0  0.23440  0.75367  0.41858  1.0000
  C   C63       1.0  0.25858  0.74087  0.42585  1.0000
  N   N19       1.0  0.21407  0.75018  0.49553  1.0000
  N   N20       1.0  0.26077  0.72455  0.50526  1.0000
  O   O13       1.0  0.22028  0.77918  0.52790  1.0000
  O   O14       1.0  0.27111  0.74512  0.57090  1.0000
  O   O15       1.0  0.18152  0.73003  0.48505  1.0000
  O   O16       1.0  0.23258  0.69677  0.52389  1.0000
  C   C64       1.0  0.20573  0.78187  0.32778  1.0000
  H   H55       1.0  0.21236  0.80214  0.37850  1.0000
  H   H56       1.0  0.17923  0.75996  0.34154  1.0000
  C   C65       1.0  0.22919  0.96213  0.33725  1.0000
  C   C66       1.0  0.24445  0.98037  0.41851  1.0000
  C   C67       1.0  0.25727  0.51735  0.42574  1.0000
  N   N21       1.0  0.24797  0.96354  0.49545  1.0000
  N   N22       1.0  0.27365  0.53589  0.50507  1.0000
  O   O17       1.0  0.21899  0.94076  0.52790  1.0000
  O   O18       1.0  0.25313  0.52569  0.57080  1.0000
  O   O19       1.0  0.26811  0.95114  0.48490  1.0000
  O   O20       1.0  0.30144  0.53546  0.52357  1.0000
  C   C68       1.0  0.21620  0.92348  0.32778  1.0000
  H   H57       1.0  0.19594  0.90985  0.37853  1.0000
  H   H58       1.0  0.23811  0.91889  0.34151  1.0000
  C   C69       1.0  0.03592  0.76667  0.33726  1.0000
  C   C70       1.0  0.01770  0.76367  0.41856  1.0000
  C   C71       1.0  0.48073  0.73949  0.42585  1.0000
  N   N23       1.0  0.03454  0.78401  0.49550  1.0000
  N   N24       1.0  0.46222  0.73730  0.50526  1.0000
  O   O21       1.0  0.05734  0.77782  0.52790  1.0000
  O   O22       1.0  0.47245  0.72698  0.57091  1.0000
  O   O23       1.0  0.04694  0.81656  0.48500  1.0000
  O   O24       1.0  0.46263  0.76550  0.52386  1.0000
  C   C72       1.0  0.07457  0.79234  0.32776  1.0000
  H   H59       1.0  0.08821  0.78571  0.37851  1.0000
  H   H60       1.0  0.07917  0.81884  0.34150  1.0000
  C   C73       1.0  0.78042  0.24357  0.35239  1.0000
  C   C74       1.0  0.77704  0.25874  0.27275  1.0000
  C   C75       1.0  0.75340  0.27136  0.26552  1.0000
  H   H61       1.0  0.75251  0.28222  0.20610  1.0000
  H   H62       1.0  0.79191  0.26066  0.21812  1.0000
  C   C76       1.0  0.80517  0.22928  0.34923  1.0000
  H   H63       1.0  0.82995  0.24867  0.31765  1.0000
  H   H64       1.0  0.79283  0.20617  0.30558  1.0000
  C   C77       1.0  0.75451  0.03647  0.35233  1.0000
  C   C78       1.0  0.73933  0.01791  0.27271  1.0000
  C   C79       1.0  0.72668  0.48165  0.26552  1.0000
  H   H65       1.0  0.71581  0.46989  0.20609  1.0000
  H   H66       1.0  0.73742  0.03087  0.21805  1.0000
  C   C80       1.0  0.76896  0.07553  0.34903  1.0000
  H   H67       1.0  0.74973  0.08104  0.31693  1.0000
  H   H68       1.0  0.79218  0.08621  0.30580  1.0000
  C   C81       1.0  0.96159  0.21764  0.35241  1.0000
  C   C82       1.0  0.98013  0.22101  0.27277  1.0000
  C   C83       1.0  0.51639  0.24465  0.26553  1.0000
  H   H69       1.0  0.52814  0.24553  0.20610  1.0000
  H   H70       1.0  0.96718  0.20613  0.21815  1.0000
  C   C84       1.0  0.92255  0.19288  0.34926  1.0000
  H   H71       1.0  0.91717  0.16809  0.31775  1.0000
  H   H72       1.0  0.91177  0.20519  0.30555  1.0000
  C   C85       1.0  0.68470  0.31442  0.23883  1.0000
  C   C86       1.0  0.64744  0.29547  0.23859  1.0000
  C   C87       1.0  0.62816  0.31335  0.23885  1.0000
  C   C88       1.0  0.64647  0.35061  0.23859  1.0000
  C   C89       1.0  0.68363  0.36990  0.23885  1.0000
  C   C90       1.0  0.70257  0.35158  0.23857  1.0000
  H   H73       1.0  0.63260  0.36374  0.23907  1.0000
  H   H74       1.0  0.72957  0.36544  0.23907  1.0000
  H   H75       1.0  0.63431  0.26848  0.23906  1.0000
  N   N25       1.0  0.70493  0.29741  0.24026  1.0000
  H   H76       1.0  0.69591  0.27849  0.19129  1.0000
  N   N26       1.0  0.70064  0.40713  0.24028  1.0000
  H   H77       1.0  0.71955  0.41703  0.19128  1.0000
  N   N27       1.0  0.59092  0.29312  0.24026  1.0000
  H   H78       1.0  0.58101  0.30213  0.19127  1.0000
  C   C91       1.0  0.82386  0.19327  0.43367  1.0000
  C   C92       1.0  0.85935  0.20133  0.43414  1.0000
  C   C93       1.0  0.86785  0.17422  0.43367  1.0000
  C   C94       1.0  0.84041  0.13872  0.43405  1.0000
  C   C95       1.0  0.80479  0.13022  0.43358  1.0000
  C   C96       1.0  0.79674  0.15766  0.43409  1.0000
  H   H79       1.0  0.84642  0.11893  0.43469  1.0000
  H   H80       1.0  0.77094  0.15165  0.43473  1.0000
  H   H81       1.0  0.87914  0.22713  0.43484  1.0000
  N   N28       1.0  0.81434  0.21970  0.43596  1.0000
  H   H82       1.0  0.83251  0.24183  0.46971  1.0000
  N   N29       1.0  0.77836  0.09428  0.43579  1.0000
  H   H83       1.0  0.75615  0.09033  0.46909  1.0000
  N   N30       1.0  0.90378  0.18373  0.43598  1.0000
  H   H84       1.0  0.90775  0.16558  0.46980  1.0000
  C   C97       1.0  0.73139  0.26888  0.33726  1.0000
  C   C98       1.0  0.73440  0.25366  0.41858  1.0000
  C   C99       1.0  0.75858  0.24087  0.42585  1.0000
  N   N31       1.0  0.71407  0.25018  0.49553  1.0000
  N   N32       1.0  0.76077  0.22455  0.50526  1.0000
  O   O25       1.0  0.72028  0.27918  0.52790  1.0000
  O   O26       1.0  0.77111  0.24512  0.57090  1.0000
  O   O27       1.0  0.68153  0.23003  0.48505  1.0000
  O   O28       1.0  0.73258  0.19677  0.52389  1.0000
  C   C100      1.0  0.70573  0.28187  0.32778  1.0000
  H   H85       1.0  0.71236  0.30214  0.37850  1.0000
  H   H86       1.0  0.67923  0.25996  0.34154  1.0000
  C   C101      1.0  0.72919  0.46213  0.33725  1.0000
  C   C102      1.0  0.74445  0.48037  0.41851  1.0000
  C   C103      1.0  0.75727  0.01735  0.42574  1.0000
  N   N33       1.0  0.74797  0.46354  0.49545  1.0000
  N   N34       1.0  0.77365  0.03589  0.50507  1.0000
  O   O29       1.0  0.71898  0.44075  0.52790  1.0000
  O   O30       1.0  0.75313  0.02569  0.57080  1.0000
  O   O31       1.0  0.76811  0.45114  0.48490  1.0000
  O   O32       1.0  0.80144  0.03546  0.52357  1.0000
  C   C104      1.0  0.71620  0.42348  0.32778  1.0000
  H   H87       1.0  0.69594  0.40985  0.37853  1.0000
  H   H88       1.0  0.73811  0.41888  0.34151  1.0000
  C   C105      1.0  0.53592  0.26667  0.33726  1.0000
  C   C106      1.0  0.51770  0.26367  0.41856  1.0000
  C   C107      1.0  0.98072  0.23949  0.42585  1.0000
  N   N35       1.0  0.53454  0.28401  0.49550  1.0000
  N   N36       1.0  0.96222  0.23730  0.50526  1.0000
  O   O33       1.0  0.55734  0.27782  0.52790  1.0000
  O   O34       1.0  0.97245  0.22698  0.57091  1.0000
  O   O35       1.0  0.54694  0.31656  0.48500  1.0000
  O   O36       1.0  0.96263  0.26550  0.52386  1.0000
  C   C108      1.0  0.57457  0.29233  0.32776  1.0000
  H   H89       1.0  0.58821  0.28571  0.37851  1.0000
  H   H90       1.0  0.57917  0.31884  0.34150  1.0000
  C   C109      1.0  0.78042  0.74357  0.35239  1.0000
  C   C110      1.0  0.77704  0.75874  0.27275  1.0000
  C   C111      1.0  0.75340  0.77136  0.26552  1.0000
  H   H91       1.0  0.75251  0.78222  0.20610  1.0000
  H   H92       1.0  0.79192  0.76066  0.21812  1.0000
  C   C112      1.0  0.80517  0.72928  0.34923  1.0000
  H   H93       1.0  0.82995  0.74867  0.31765  1.0000
  H   H94       1.0  0.79283  0.70618  0.30558  1.0000
  C   C113      1.0  0.75451  0.53647  0.35233  1.0000
  C   C114      1.0  0.73932  0.51792  0.27271  1.0000
  C   C115      1.0  0.72668  0.98165  0.26552  1.0000
  H   H95       1.0  0.71581  0.96989  0.20609  1.0000
  H   H96       1.0  0.73742  0.53087  0.21805  1.0000
  C   C116      1.0  0.76896  0.57553  0.34903  1.0000
  H   H97       1.0  0.74973  0.58104  0.31693  1.0000
  H   H98       1.0  0.79218  0.58621  0.30580  1.0000
  C   C117      1.0  0.96159  0.71764  0.35241  1.0000
  C   C118      1.0  0.98013  0.72101  0.27277  1.0000
  C   C119      1.0  0.51639  0.74465  0.26553  1.0000
  H   H99       1.0  0.52815  0.74553  0.20610  1.0000
  H   H100      1.0  0.96718  0.70613  0.21815  1.0000
  C   C120      1.0  0.92255  0.69288  0.34926  1.0000
  H   H101      1.0  0.91717  0.66809  0.31775  1.0000
  H   H102      1.0  0.91177  0.70519  0.30555  1.0000
  C   C121      1.0  0.68470  0.81442  0.23883  1.0000
  C   C122      1.0  0.64744  0.79547  0.23859  1.0000
  C   C123      1.0  0.62815  0.81335  0.23885  1.0000
  C   C124      1.0  0.64647  0.85061  0.23859  1.0000
  C   C125      1.0  0.68363  0.86990  0.23885  1.0000
  C   C126      1.0  0.70258  0.85158  0.23857  1.0000
  H   H103      1.0  0.63261  0.86374  0.23907  1.0000
  H   H104      1.0  0.72957  0.86545  0.23907  1.0000
  H   H105      1.0  0.63431  0.76848  0.23906  1.0000
  N   N37       1.0  0.70493  0.79741  0.24026  1.0000
  H   H106      1.0  0.69591  0.77849  0.19129  1.0000
  N   N38       1.0  0.70064  0.90713  0.24028  1.0000
  H   H107      1.0  0.71955  0.91703  0.19128  1.0000
  N   N39       1.0  0.59092  0.79312  0.24026  1.0000
  H   H108      1.0  0.58102  0.80214  0.19127  1.0000
  C   C127      1.0  0.82386  0.69327  0.43367  1.0000
  C   C128      1.0  0.85935  0.70133  0.43414  1.0000
  C   C129      1.0  0.86785  0.67422  0.43367  1.0000
  C   C130      1.0  0.84041  0.63872  0.43405  1.0000
  C   C131      1.0  0.80479  0.63022  0.43358  1.0000
  C   C132      1.0  0.79674  0.65766  0.43409  1.0000
  H   H109      1.0  0.84642  0.61893  0.43469  1.0000
  H   H110      1.0  0.77094  0.65165  0.43473  1.0000
  H   H111      1.0  0.87914  0.72713  0.43484  1.0000
  N   N40       1.0  0.81434  0.71970  0.43596  1.0000
  H   H112      1.0  0.83251  0.74182  0.46971  1.0000
  N   N41       1.0  0.77836  0.59428  0.43579  1.0000
  H   H113      1.0  0.75615  0.59033  0.46909  1.0000
  N   N42       1.0  0.90379  0.68373  0.43598  1.0000
  H   H114      1.0  0.90775  0.66558  0.46980  1.0000
  C   C133      1.0  0.73139  0.76888  0.33726  1.0000
  C   C134      1.0  0.73440  0.75367  0.41858  1.0000
  C   C135      1.0  0.75858  0.74087  0.42585  1.0000
  N   N43       1.0  0.71407  0.75018  0.49553  1.0000
  N   N44       1.0  0.76077  0.72455  0.50526  1.0000
  O   O37       1.0  0.72028  0.77918  0.52790  1.0000
  O   O38       1.0  0.77111  0.74512  0.57090  1.0000
  O   O39       1.0  0.68153  0.73003  0.48505  1.0000
  O   O40       1.0  0.73258  0.69677  0.52389  1.0000
  C   C136      1.0  0.70573  0.78187  0.32778  1.0000
  H   H115      1.0  0.71236  0.80214  0.37850  1.0000
  H   H116      1.0  0.67923  0.75996  0.34154  1.0000
  C   C137      1.0  0.72919  0.96213  0.33725  1.0000
  C   C138      1.0  0.74445  0.98037  0.41851  1.0000
  C   C139      1.0  0.75727  0.51735  0.42574  1.0000
  N   N45       1.0  0.74797  0.96354  0.49545  1.0000
  N   N46       1.0  0.77365  0.53589  0.50507  1.0000
  O   O41       1.0  0.71898  0.94076  0.52790  1.0000
  O   O42       1.0  0.75313  0.52569  0.57080  1.0000
  O   O43       1.0  0.76811  0.95114  0.48490  1.0000
  O   O44       1.0  0.80144  0.53546  0.52357  1.0000
  C   C140      1.0  0.71620  0.92348  0.32778  1.0000
  H   H117      1.0  0.69594  0.90985  0.37853  1.0000
  H   H118      1.0  0.73811  0.91889  0.34151  1.0000
  C   C141      1.0  0.53592  0.76667  0.33726  1.0000
  C   C142      1.0  0.51770  0.76367  0.41856  1.0000
  C   C143      1.0  0.98072  0.73949  0.42585  1.0000
  N   N47       1.0  0.53454  0.78401  0.49550  1.0000
  N   N48       1.0  0.96222  0.73730  0.50526  1.0000
  O   O45       1.0  0.55734  0.77782  0.52790  1.0000
  O   O46       1.0  0.97245  0.72698  0.57091  1.0000
  O   O47       1.0  0.54694  0.81656  0.48500  1.0000
  O   O48       1.0  0.96262  0.76550  0.52386  1.0000
  C   C144      1.0  0.57457  0.79234  0.32776  1.0000
  H   H119      1.0  0.58821  0.78571  0.37851  1.0000
  H   H120      1.0  0.57917  0.81884  0.34150  1.0000
