data_image0
_chemical_formula_structural       C10H7C2O4C3NC2NH2CHNHC6N3HNHC15H9C5H2C2H3CH4NHC2H2C2H5C2H5C10H7C2O4C3NC2NH2CHNHC6N3HNHC15H9C5H2C2H3CH4NHC2H2C2H5C2H5C10H7C2O4C3NC2NH2CHNHC6N3HNHC15H9C5H2C2H3CH4NHC2H2C2H5C2H5C10H7C2O4C3NC2NH2CHNHC6N3HNHC15H9C5H2C2H3CH4NHC2H2C2H5C2H5
_chemical_formula_sum              "C212 H176 O16 N32"
_cell_length_a       30.839
_cell_length_b       30.839
_cell_length_c       15.0055
_cell_angle_alpha    90
_cell_angle_beta     90
_cell_angle_gamma    90

_space_group_name_H-M_alt    "P 1"
_space_group_IT_number       1

loop_
  _space_group_symop_operation_xyz
  'x, y, z'

loop_
  _atom_site_type_symbol
  _atom_site_label
  _atom_site_symmetry_multiplicity
  _atom_site_fract_x
  _atom_site_fract_y
  _atom_site_fract_z
  _atom_site_occupancy
  C   C1        1.0  0.43704  0.45497  0.00888  1.0000
  C   C2        1.0  0.40509  0.45025  0.07487  1.0000
  C   C3        1.0  0.39139  0.48583  0.12739  1.0000
  C   C4        1.0  0.41197  0.02615  0.11204  1.0000
  C   C5        1.0  0.44349  0.03088  0.04517  1.0000
  C   C6        1.0  0.04990  0.04090  0.02761  1.0000
  C   C7        1.0  0.07817  0.04166  0.10110  1.0000
  C   C8        1.0  0.08968  0.00310  0.14645  1.0000
  C   C9        1.0  0.07106  0.46389  0.11636  1.0000
  C   C10       1.0  0.04285  0.46330  0.04290  1.0000
  H   H1        1.0  0.39179  0.42013  0.08346  1.0000
  H   H2        1.0  0.40508  0.05264  0.15038  1.0000
  H   H3        1.0  0.45781  0.06060  0.03805  1.0000
  H   H4        1.0  0.04144  0.06996  0.00002  1.0000
  H   H5        1.0  0.09080  0.07092  0.12012  1.0000
  H   H6        1.0  0.07708  0.43531  0.14868  1.0000
  H   H7        1.0  0.02916  0.43428  0.02581  1.0000
  C   C11       1.0  0.35644  0.48070  0.18932  1.0000
  C   C12       1.0  0.12158  0.00384  0.21545  1.0000
  O   O1        1.0  0.12899  0.04218  0.25711  1.0000
  O   O2        1.0  0.44143  0.13716  0.27888  1.0000
  O   O3        1.0  0.34491  0.43974  0.21242  1.0000
  O   O4        1.0  0.04873  0.35334  0.29548  1.0000
  C   C13       1.0  0.00030  0.27645  0.21971  1.0000
  C   C14       1.0  0.00923  0.23133  0.21893  1.0000
  C   C15       1.0  0.99829  0.20536  0.29322  1.0000
  N   N1        1.0  0.02834  0.21449  0.14515  1.0000
  C   C16       1.0  0.03951  0.23795  0.07171  1.0000
  C   C17       1.0  0.03137  0.28340  0.07339  1.0000
  N   N2        1.0  0.01205  0.30005  0.14737  1.0000
  H   H8        1.0  0.58794  0.19577  0.02360  1.0000
  H   H9        1.0  0.01798  0.15639  0.00144  1.0000
  C   C18       1.0  0.04214  0.31464  0.00131  1.0000
  H   H10       1.0  0.54106  0.34776  0.02737  1.0000
  N   N3        1.0  0.01135  0.16317  0.30033  1.0000
  H   H11       1.0  0.03948  0.16055  0.32919  1.0000
  C   C19       1.0  0.19585  0.48598  0.21995  1.0000
  C   C20       1.0  0.21450  0.00612  0.14435  1.0000
  C   C21       1.0  0.25919  0.01601  0.14271  1.0000
  C   C22       1.0  0.28579  0.00598  0.21680  1.0000
  C   C23       1.0  0.26709  0.48538  0.29161  1.0000
  C   C24       1.0  0.22266  0.47487  0.29253  1.0000
  N   N4        1.0  0.27554  0.03362  0.06678  1.0000
  N   N5        1.0  0.19077  0.01577  0.07070  1.0000
  N   N6        1.0  0.32935  0.01387  0.21257  1.0000
  H   H12       1.0  0.33639  0.04280  0.19158  1.0000
  N   N7        1.0  0.15357  0.47328  0.21846  1.0000
  H   H13       1.0  0.14909  0.44661  0.18493  1.0000
  C   C25       1.0  0.48561  0.10083  0.38630  1.0000
  C   C26       1.0  0.02617  0.08365  0.41255  1.0000
  C   C27       1.0  0.02934  0.05396  0.48348  1.0000
  C   C28       1.0  0.49236  0.04021  0.53248  1.0000
  C   C29       1.0  0.45194  0.05807  0.50584  1.0000
  C   C30       1.0  0.44864  0.08763  0.43503  1.0000
  C   C31       1.0  0.99507  0.50070  0.59376  1.0000
  C   C32       1.0  0.99902  0.46469  0.52423  1.0000
  C   C33       1.0  0.46291  0.45360  0.47003  1.0000
  C   C34       1.0  0.46605  0.42326  0.40059  1.0000
  C   C35       1.0  0.00566  0.40204  0.38157  1.0000
  C   C36       1.0  0.04252  0.41514  0.43105  1.0000
  C   C37       1.0  0.03934  0.44595  0.49979  1.0000
  C   C38       1.0  0.03187  0.00160  0.66188  1.0000
  C   C39       1.0  0.45640  0.49571  0.65672  1.0000
  H   H14       1.0  0.44676  0.42759  0.64289  1.0000
  H   H15       1.0  0.06730  0.45466  0.53156  1.0000
  H   H16       1.0  0.07224  0.40147  0.41964  1.0000
  H   H17       1.0  0.43872  0.41707  0.36427  1.0000
  H   H18       1.0  0.43339  0.46771  0.48098  1.0000
  H   H19       1.0  0.42363  0.04782  0.53414  1.0000
  H   H20       1.0  0.05905  0.04065  0.49649  1.0000
  H   H21       1.0  0.05373  0.09092  0.37774  1.0000
  H   H22       1.0  0.41846  0.09903  0.41899  1.0000
  C   C40       1.0  0.00854  0.36652  0.32029  1.0000
  C   C41       1.0  0.48122  0.13170  0.31586  1.0000
  C   C42       1.0  0.48028  0.29592  0.29449  1.0000
  C   C43       1.0  0.47779  0.22501  0.36718  1.0000
  C   C44       1.0  0.46821  0.26940  0.36708  1.0000
  H   H23       1.0  0.45435  0.28276  0.42264  1.0000
  H   H24       1.0  0.47071  0.20720  0.42286  1.0000
  C   C45       1.0  0.06000  0.21347  0.66409  1.0000
  C   C46       1.0  0.02849  0.18083  0.62010  1.0000
  H   H25       1.0  0.07216  0.23502  0.61224  1.0000
  H   H26       1.0  0.49998  0.19758  0.59411  1.0000
  H   H27       1.0  0.04470  0.16439  0.56494  1.0000
  C   C47       1.0  0.01037  0.31235  0.58857  1.0000
  H   H28       1.0  0.07530  0.30929  0.64498  1.0000
  H   H29       1.0  0.01102  0.28040  0.55757  1.0000
  H   H30       1.0  0.01953  0.33631  0.53855  1.0000
  H   H31       1.0  0.47735  0.31931  0.61065  1.0000
  N   N8        1.0  0.47430  0.33963  0.30292  1.0000
  H   H32       1.0  0.44617  0.34775  0.32708  1.0000
  C   C48       1.0  0.25200  0.04296  0.65916  1.0000
  C   C49       1.0  0.20678  0.03400  0.66170  1.0000
  H   H33       1.0  0.21000  0.45863  0.34595  1.0000
  H   H34       1.0  0.28606  0.47685  0.34471  1.0000
  C   C50       1.0  0.27620  0.06234  0.58330  1.0000
  C   C51       1.0  0.31008  0.03084  0.54345  1.0000
  H   H35       1.0  0.29287  0.59144  0.60688  1.0000
  H   H36       1.0  0.25455  0.07249  0.52984  1.0000
  H   H37       1.0  0.29441  0.50110  0.52063  1.0000
  H   H38       1.0  0.33472  0.52254  0.59286  1.0000
  H   H39       1.0  0.32614  0.04608  0.48667  1.0000
  C   C52       1.0  0.17530  0.04264  0.58883  1.0000
  C   C53       1.0  0.17816  0.00935  0.51220  1.0000
  H   H40       1.0  0.17999  0.07540  0.56300  1.0000
  H   H41       1.0  0.14224  0.54140  0.61497  1.0000
  H   H42       1.0  0.21012  0.01005  0.48130  1.0000
  H   H43       1.0  0.15397  0.01700  0.46143  1.0000
  H   H44       1.0  0.17189  0.47668  0.53714  1.0000
  C   C54       1.0  0.43704  0.95497  0.00888  1.0000
  C   C55       1.0  0.40509  0.95025  0.07487  1.0000
  C   C56       1.0  0.39139  0.98583  0.12739  1.0000
  C   C57       1.0  0.41197  0.52615  0.11204  1.0000
  C   C58       1.0  0.44349  0.53088  0.04517  1.0000
  C   C59       1.0  0.04990  0.54090  0.02761  1.0000
  C   C60       1.0  0.07817  0.54166  0.10110  1.0000
  C   C61       1.0  0.08968  0.50310  0.14645  1.0000
  C   C62       1.0  0.07106  0.96389  0.11636  1.0000
  C   C63       1.0  0.04285  0.96330  0.04290  1.0000
  H   H45       1.0  0.39179  0.92013  0.08346  1.0000
  H   H46       1.0  0.40508  0.55265  0.15038  1.0000
  H   H47       1.0  0.45781  0.56060  0.03805  1.0000
  H   H48       1.0  0.04144  0.56996  0.00002  1.0000
  H   H49       1.0  0.09080  0.57092  0.12012  1.0000
  H   H50       1.0  0.07708  0.93530  0.14868  1.0000
  H   H51       1.0  0.02916  0.93428  0.02581  1.0000
  C   C64       1.0  0.35644  0.98070  0.18932  1.0000
  C   C65       1.0  0.12158  0.50384  0.21545  1.0000
  O   O5        1.0  0.12899  0.54217  0.25711  1.0000
  O   O6        1.0  0.44143  0.63716  0.27888  1.0000
  O   O7        1.0  0.34491  0.93974  0.21242  1.0000
  O   O8        1.0  0.04873  0.85334  0.29548  1.0000
  C   C66       1.0  0.00030  0.77645  0.21971  1.0000
  C   C67       1.0  0.00923  0.73133  0.21893  1.0000
  C   C68       1.0  0.99829  0.70536  0.29322  1.0000
  N   N9        1.0  0.02834  0.71449  0.14515  1.0000
  C   C69       1.0  0.03951  0.73795  0.07171  1.0000
  C   C70       1.0  0.03137  0.78339  0.07339  1.0000
  N   N10       1.0  0.01205  0.80005  0.14737  1.0000
  H   H52       1.0  0.58794  0.69577  0.02360  1.0000
  H   H53       1.0  0.01798  0.65639  0.00144  1.0000
  C   C71       1.0  0.04214  0.81464  0.00131  1.0000
  H   H54       1.0  0.54106  0.84776  0.02737  1.0000
  N   N11       1.0  0.01135  0.66316  0.30033  1.0000
  H   H55       1.0  0.03948  0.66054  0.32919  1.0000
  C   C72       1.0  0.19585  0.98598  0.21995  1.0000
  C   C73       1.0  0.21450  0.50612  0.14435  1.0000
  C   C74       1.0  0.25919  0.51601  0.14271  1.0000
  C   C75       1.0  0.28579  0.50598  0.21680  1.0000
  C   C76       1.0  0.26709  0.98538  0.29161  1.0000
  C   C77       1.0  0.22266  0.97486  0.29253  1.0000
  N   N12       1.0  0.27554  0.53362  0.06678  1.0000
  N   N13       1.0  0.19077  0.51577  0.07070  1.0000
  N   N14       1.0  0.32935  0.51386  0.21257  1.0000
  H   H56       1.0  0.33639  0.54280  0.19158  1.0000
  N   N15       1.0  0.15357  0.97328  0.21846  1.0000
  H   H57       1.0  0.14909  0.94661  0.18493  1.0000
  C   C78       1.0  0.48561  0.60083  0.38630  1.0000
  C   C79       1.0  0.02617  0.58365  0.41255  1.0000
  C   C80       1.0  0.02934  0.55396  0.48348  1.0000
  C   C81       1.0  0.49236  0.54021  0.53248  1.0000
  C   C82       1.0  0.45194  0.55806  0.50584  1.0000
  C   C83       1.0  0.44864  0.58763  0.43503  1.0000
  C   C84       1.0  0.99507  0.00070  0.59376  1.0000
  C   C85       1.0  0.99902  0.96469  0.52423  1.0000
  C   C86       1.0  0.46291  0.95360  0.47003  1.0000
  C   C87       1.0  0.46605  0.92326  0.40059  1.0000
  C   C88       1.0  0.00566  0.90204  0.38157  1.0000
  C   C89       1.0  0.04252  0.91514  0.43105  1.0000
  C   C90       1.0  0.03934  0.94595  0.49979  1.0000
  C   C91       1.0  0.03187  0.50160  0.66188  1.0000
  C   C92       1.0  0.45640  0.99571  0.65672  1.0000
  H   H58       1.0  0.44676  0.92759  0.64289  1.0000
  H   H59       1.0  0.06730  0.95466  0.53156  1.0000
  H   H60       1.0  0.07224  0.90147  0.41964  1.0000
  H   H61       1.0  0.43872  0.91707  0.36427  1.0000
  H   H62       1.0  0.43339  0.96771  0.48098  1.0000
  H   H63       1.0  0.42363  0.54781  0.53414  1.0000
  H   H64       1.0  0.05905  0.54065  0.49649  1.0000
  H   H65       1.0  0.05373  0.59092  0.37774  1.0000
  H   H66       1.0  0.41846  0.59903  0.41899  1.0000
  C   C93       1.0  0.00854  0.86652  0.32029  1.0000
  C   C94       1.0  0.48122  0.63170  0.31586  1.0000
  C   C95       1.0  0.48028  0.79592  0.29449  1.0000
  C   C96       1.0  0.47779  0.72501  0.36718  1.0000
  C   C97       1.0  0.46821  0.76940  0.36708  1.0000
  H   H67       1.0  0.45435  0.78276  0.42264  1.0000
  H   H68       1.0  0.47071  0.70720  0.42286  1.0000
  C   C98       1.0  0.06000  0.71347  0.66409  1.0000
  C   C99       1.0  0.02849  0.68083  0.62010  1.0000
  H   H69       1.0  0.07216  0.73502  0.61224  1.0000
  H   H70       1.0  0.49998  0.69758  0.59411  1.0000
  H   H71       1.0  0.04470  0.66439  0.56494  1.0000
  C   C100      1.0  0.01037  0.81234  0.58857  1.0000
  H   H72       1.0  0.07530  0.80929  0.64498  1.0000
  H   H73       1.0  0.01102  0.78040  0.55757  1.0000
  H   H74       1.0  0.01953  0.83631  0.53855  1.0000
  H   H75       1.0  0.47735  0.81931  0.61065  1.0000
  N   N16       1.0  0.47430  0.83963  0.30292  1.0000
  H   H76       1.0  0.44617  0.84776  0.32708  1.0000
  C   C101      1.0  0.25200  0.54296  0.65916  1.0000
  C   C102      1.0  0.20678  0.53400  0.66170  1.0000
  H   H77       1.0  0.21000  0.95862  0.34595  1.0000
  H   H78       1.0  0.28606  0.97685  0.34471  1.0000
  C   C103      1.0  0.27620  0.56234  0.58330  1.0000
  C   C104      1.0  0.31008  0.53085  0.54345  1.0000
  H   H79       1.0  0.29287  0.09144  0.60688  1.0000
  H   H80       1.0  0.25455  0.57249  0.52984  1.0000
  H   H81       1.0  0.29441  0.00110  0.52063  1.0000
  H   H82       1.0  0.33472  0.02254  0.59286  1.0000
  H   H83       1.0  0.32614  0.54609  0.48667  1.0000
  C   C105      1.0  0.17530  0.54263  0.58883  1.0000
  C   C106      1.0  0.17816  0.50935  0.51220  1.0000
  H   H84       1.0  0.17999  0.57540  0.56300  1.0000
  H   H85       1.0  0.14224  0.04140  0.61497  1.0000
  H   H86       1.0  0.21012  0.51005  0.48130  1.0000
  H   H87       1.0  0.15397  0.51699  0.46143  1.0000
  H   H88       1.0  0.17189  0.97667  0.53714  1.0000
  C   C107      1.0  0.93704  0.45497  0.00888  1.0000
  C   C108      1.0  0.90510  0.45025  0.07487  1.0000
  C   C109      1.0  0.89138  0.48583  0.12739  1.0000
  C   C110      1.0  0.91197  0.02615  0.11204  1.0000
  C   C111      1.0  0.94349  0.03088  0.04517  1.0000
  C   C112      1.0  0.54990  0.04090  0.02761  1.0000
  C   C113      1.0  0.57817  0.04166  0.10110  1.0000
  C   C114      1.0  0.58968  0.00310  0.14645  1.0000
  C   C115      1.0  0.57106  0.46389  0.11636  1.0000
  C   C116      1.0  0.54285  0.46330  0.04290  1.0000
  H   H89       1.0  0.89179  0.42013  0.08346  1.0000
  H   H90       1.0  0.90508  0.05264  0.15038  1.0000
  H   H91       1.0  0.95781  0.06060  0.03805  1.0000
  H   H92       1.0  0.54144  0.06996  0.00002  1.0000
  H   H93       1.0  0.59080  0.07092  0.12012  1.0000
  H   H94       1.0  0.57708  0.43531  0.14868  1.0000
  H   H95       1.0  0.52916  0.43428  0.02581  1.0000
  C   C117      1.0  0.85644  0.48070  0.18932  1.0000
  C   C118      1.0  0.62158  0.00384  0.21545  1.0000
  O   O9        1.0  0.62899  0.04218  0.25711  1.0000
  O   O10       1.0  0.94143  0.13716  0.27888  1.0000
  O   O11       1.0  0.84491  0.43974  0.21242  1.0000
  O   O12       1.0  0.54873  0.35334  0.29548  1.0000
  C   C119      1.0  0.50030  0.27645  0.21971  1.0000
  C   C120      1.0  0.50923  0.23133  0.21893  1.0000
  C   C121      1.0  0.49829  0.20536  0.29322  1.0000
  N   N17       1.0  0.52834  0.21449  0.14515  1.0000
  C   C122      1.0  0.53951  0.23795  0.07171  1.0000
  C   C123      1.0  0.53137  0.28340  0.07339  1.0000
  N   N18       1.0  0.51205  0.30005  0.14737  1.0000
  H   H96       1.0  0.08794  0.19577  0.02360  1.0000
  H   H97       1.0  0.51798  0.15639  0.00144  1.0000
  C   C124      1.0  0.54214  0.31464  0.00131  1.0000
  H   H98       1.0  0.04106  0.34776  0.02737  1.0000
  N   N19       1.0  0.51135  0.16317  0.30033  1.0000
  H   H99       1.0  0.53948  0.16055  0.32919  1.0000
  C   C125      1.0  0.69585  0.48598  0.21995  1.0000
  C   C126      1.0  0.71450  0.00612  0.14435  1.0000
  C   C127      1.0  0.75919  0.01601  0.14271  1.0000
  C   C128      1.0  0.78579  0.00598  0.21680  1.0000
  C   C129      1.0  0.76709  0.48538  0.29161  1.0000
  C   C130      1.0  0.72266  0.47487  0.29253  1.0000
  N   N20       1.0  0.77554  0.03362  0.06678  1.0000
  N   N21       1.0  0.69077  0.01577  0.07070  1.0000
  N   N22       1.0  0.82935  0.01387  0.21257  1.0000
  H   H100      1.0  0.83639  0.04280  0.19158  1.0000
  N   N23       1.0  0.65358  0.47328  0.21846  1.0000
  H   H101      1.0  0.64908  0.44661  0.18493  1.0000
  C   C131      1.0  0.98561  0.10083  0.38630  1.0000
  C   C132      1.0  0.52617  0.08365  0.41255  1.0000
  C   C133      1.0  0.52934  0.05396  0.48348  1.0000
  C   C134      1.0  0.99236  0.04021  0.53248  1.0000
  C   C135      1.0  0.95194  0.05807  0.50584  1.0000
  C   C136      1.0  0.94864  0.08763  0.43503  1.0000
  C   C137      1.0  0.49507  0.50070  0.59376  1.0000
  C   C138      1.0  0.49902  0.46469  0.52423  1.0000
  C   C139      1.0  0.96291  0.45360  0.47003  1.0000
  C   C140      1.0  0.96605  0.42326  0.40059  1.0000
  C   C141      1.0  0.50566  0.40204  0.38157  1.0000
  C   C142      1.0  0.54252  0.41514  0.43105  1.0000
  C   C143      1.0  0.53934  0.44595  0.49979  1.0000
  C   C144      1.0  0.53187  0.00160  0.66188  1.0000
  C   C145      1.0  0.95640  0.49571  0.65672  1.0000
  H   H102      1.0  0.94676  0.42759  0.64289  1.0000
  H   H103      1.0  0.56730  0.45466  0.53156  1.0000
  H   H104      1.0  0.57224  0.40147  0.41964  1.0000
  H   H105      1.0  0.93872  0.41707  0.36427  1.0000
  H   H106      1.0  0.93339  0.46771  0.48098  1.0000
  H   H107      1.0  0.92362  0.04782  0.53414  1.0000
  H   H108      1.0  0.55905  0.04065  0.49649  1.0000
  H   H109      1.0  0.55373  0.09092  0.37774  1.0000
  H   H110      1.0  0.91846  0.09903  0.41899  1.0000
  C   C146      1.0  0.50853  0.36652  0.32029  1.0000
  C   C147      1.0  0.98122  0.13170  0.31586  1.0000
  C   C148      1.0  0.98027  0.29592  0.29449  1.0000
  C   C149      1.0  0.97779  0.22501  0.36718  1.0000
  C   C150      1.0  0.96821  0.26940  0.36708  1.0000
  H   H111      1.0  0.95435  0.28276  0.42264  1.0000
  H   H112      1.0  0.97071  0.20720  0.42286  1.0000
  C   C151      1.0  0.56000  0.21347  0.66409  1.0000
  C   C152      1.0  0.52849  0.18083  0.62010  1.0000
  H   H113      1.0  0.57216  0.23502  0.61224  1.0000
  H   H114      1.0  0.99999  0.19758  0.59411  1.0000
  H   H115      1.0  0.54470  0.16439  0.56494  1.0000
  C   C153      1.0  0.51037  0.31235  0.58857  1.0000
  H   H116      1.0  0.57530  0.30929  0.64498  1.0000
  H   H117      1.0  0.51102  0.28040  0.55757  1.0000
  H   H118      1.0  0.51953  0.33631  0.53855  1.0000
  H   H119      1.0  0.97735  0.31931  0.61065  1.0000
  N   N24       1.0  0.97430  0.33963  0.30292  1.0000
  H   H120      1.0  0.94617  0.34775  0.32708  1.0000
  C   C154      1.0  0.75200  0.04296  0.65916  1.0000
  C   C155      1.0  0.70678  0.03400  0.66170  1.0000
  H   H121      1.0  0.71000  0.45863  0.34595  1.0000
  H   H122      1.0  0.78606  0.47685  0.34471  1.0000
  C   C156      1.0  0.77620  0.06234  0.58330  1.0000
  C   C157      1.0  0.81008  0.03084  0.54345  1.0000
  H   H123      1.0  0.79287  0.59144  0.60688  1.0000
  H   H124      1.0  0.75455  0.07249  0.52984  1.0000
  H   H125      1.0  0.79441  0.50110  0.52063  1.0000
  H   H126      1.0  0.83472  0.52254  0.59286  1.0000
  H   H127      1.0  0.82614  0.04608  0.48667  1.0000
  C   C158      1.0  0.67530  0.04264  0.58883  1.0000
  C   C159      1.0  0.67815  0.00935  0.51220  1.0000
  H   H128      1.0  0.67999  0.07540  0.56300  1.0000
  H   H129      1.0  0.64224  0.54140  0.61497  1.0000
  H   H130      1.0  0.71012  0.01005  0.48130  1.0000
  H   H131      1.0  0.65397  0.01700  0.46143  1.0000
  H   H132      1.0  0.67189  0.47668  0.53714  1.0000
  C   C160      1.0  0.93704  0.95497  0.00888  1.0000
  C   C161      1.0  0.90510  0.95025  0.07487  1.0000
  C   C162      1.0  0.89138  0.98583  0.12739  1.0000
  C   C163      1.0  0.91197  0.52615  0.11204  1.0000
  C   C164      1.0  0.94349  0.53088  0.04517  1.0000
  C   C165      1.0  0.54990  0.54090  0.02761  1.0000
  C   C166      1.0  0.57817  0.54166  0.10110  1.0000
  C   C167      1.0  0.58968  0.50310  0.14645  1.0000
  C   C168      1.0  0.57106  0.96389  0.11636  1.0000
  C   C169      1.0  0.54285  0.96330  0.04290  1.0000
  H   H133      1.0  0.89179  0.92013  0.08346  1.0000
  H   H134      1.0  0.90508  0.55265  0.15038  1.0000
  H   H135      1.0  0.95781  0.56060  0.03805  1.0000
  H   H136      1.0  0.54144  0.56996  0.00002  1.0000
  H   H137      1.0  0.59080  0.57092  0.12012  1.0000
  H   H138      1.0  0.57708  0.93530  0.14868  1.0000
  H   H139      1.0  0.52916  0.93428  0.02581  1.0000
  C   C170      1.0  0.85644  0.98070  0.18932  1.0000
  C   C171      1.0  0.62158  0.50384  0.21545  1.0000
  O   O13       1.0  0.62899  0.54217  0.25711  1.0000
  O   O14       1.0  0.94143  0.63716  0.27888  1.0000
  O   O15       1.0  0.84491  0.93974  0.21242  1.0000
  O   O16       1.0  0.54873  0.85334  0.29548  1.0000
  C   C172      1.0  0.50030  0.77645  0.21971  1.0000
  C   C173      1.0  0.50923  0.73133  0.21893  1.0000
  C   C174      1.0  0.49829  0.70536  0.29322  1.0000
  N   N25       1.0  0.52834  0.71449  0.14515  1.0000
  C   C175      1.0  0.53951  0.73795  0.07171  1.0000
  C   C176      1.0  0.53137  0.78339  0.07339  1.0000
  N   N26       1.0  0.51205  0.80005  0.14737  1.0000
  H   H140      1.0  0.08794  0.69577  0.02360  1.0000
  H   H141      1.0  0.51798  0.65639  0.00144  1.0000
  C   C177      1.0  0.54214  0.81464  0.00131  1.0000
  H   H142      1.0  0.04106  0.84776  0.02737  1.0000
  N   N27       1.0  0.51135  0.66316  0.30033  1.0000
  H   H143      1.0  0.53948  0.66054  0.32919  1.0000
  C   C178      1.0  0.69585  0.98598  0.21995  1.0000
  C   C179      1.0  0.71450  0.50612  0.14435  1.0000
  C   C180      1.0  0.75919  0.51601  0.14271  1.0000
  C   C181      1.0  0.78579  0.50598  0.21680  1.0000
  C   C182      1.0  0.76709  0.98538  0.29161  1.0000
  C   C183      1.0  0.72266  0.97486  0.29253  1.0000
  N   N28       1.0  0.77554  0.53362  0.06678  1.0000
  N   N29       1.0  0.69077  0.51577  0.07070  1.0000
  N   N30       1.0  0.82935  0.51386  0.21257  1.0000
  H   H144      1.0  0.83639  0.54280  0.19158  1.0000
  N   N31       1.0  0.65358  0.97328  0.21846  1.0000
  H   H145      1.0  0.64908  0.94661  0.18493  1.0000
  C   C184      1.0  0.98561  0.60083  0.38630  1.0000
  C   C185      1.0  0.52617  0.58365  0.41255  1.0000
  C   C186      1.0  0.52934  0.55396  0.48348  1.0000
  C   C187      1.0  0.99236  0.54021  0.53248  1.0000
  C   C188      1.0  0.95194  0.55806  0.50584  1.0000
  C   C189      1.0  0.94864  0.58763  0.43503  1.0000
  C   C190      1.0  0.49507  0.00070  0.59376  1.0000
  C   C191      1.0  0.49902  0.96469  0.52423  1.0000
  C   C192      1.0  0.96291  0.95360  0.47003  1.0000
  C   C193      1.0  0.96605  0.92326  0.40059  1.0000
  C   C194      1.0  0.50566  0.90204  0.38157  1.0000
  C   C195      1.0  0.54252  0.91514  0.43105  1.0000
  C   C196      1.0  0.53934  0.94595  0.49979  1.0000
  C   C197      1.0  0.53187  0.50160  0.66188  1.0000
  C   C198      1.0  0.95640  0.99571  0.65672  1.0000
  H   H146      1.0  0.94676  0.92759  0.64289  1.0000
  H   H147      1.0  0.56730  0.95466  0.53156  1.0000
  H   H148      1.0  0.57224  0.90147  0.41964  1.0000
  H   H149      1.0  0.93872  0.91707  0.36427  1.0000
  H   H150      1.0  0.93339  0.96771  0.48098  1.0000
  H   H151      1.0  0.92362  0.54781  0.53414  1.0000
  H   H152      1.0  0.55905  0.54065  0.49649  1.0000
  H   H153      1.0  0.55373  0.59092  0.37774  1.0000
  H   H154      1.0  0.91846  0.59903  0.41899  1.0000
  C   C199      1.0  0.50853  0.86652  0.32029  1.0000
  C   C200      1.0  0.98122  0.63170  0.31586  1.0000
  C   C201      1.0  0.98027  0.79592  0.29449  1.0000
  C   C202      1.0  0.97779  0.72501  0.36718  1.0000
  C   C203      1.0  0.96821  0.76940  0.36708  1.0000
  H   H155      1.0  0.95435  0.78276  0.42264  1.0000
  H   H156      1.0  0.97071  0.70720  0.42286  1.0000
  C   C204      1.0  0.56000  0.71347  0.66409  1.0000
  C   C205      1.0  0.52849  0.68083  0.62010  1.0000
  H   H157      1.0  0.57216  0.73502  0.61224  1.0000
  H   H158      1.0  0.99999  0.69758  0.59411  1.0000
  H   H159      1.0  0.54470  0.66439  0.56494  1.0000
  C   C206      1.0  0.51037  0.81234  0.58857  1.0000
  H   H160      1.0  0.57530  0.80929  0.64498  1.0000
  H   H161      1.0  0.51102  0.78040  0.55757  1.0000
  H   H162      1.0  0.51953  0.83631  0.53855  1.0000
  H   H163      1.0  0.97735  0.81931  0.61065  1.0000
  N   N32       1.0  0.97430  0.83963  0.30292  1.0000
  H   H164      1.0  0.94617  0.84776  0.32708  1.0000
  C   C207      1.0  0.75200  0.54296  0.65916  1.0000
  C   C208      1.0  0.70678  0.53400  0.66170  1.0000
  H   H165      1.0  0.71000  0.95862  0.34595  1.0000
  H   H166      1.0  0.78606  0.97685  0.34471  1.0000
  C   C209      1.0  0.77620  0.56234  0.58330  1.0000
  C   C210      1.0  0.81008  0.53085  0.54345  1.0000
  H   H167      1.0  0.79287  0.09144  0.60688  1.0000
  H   H168      1.0  0.75455  0.57249  0.52984  1.0000
  H   H169      1.0  0.79441  0.00110  0.52063  1.0000
  H   H170      1.0  0.83472  0.02254  0.59286  1.0000
  H   H171      1.0  0.82614  0.54609  0.48667  1.0000
  C   C211      1.0  0.67530  0.54263  0.58883  1.0000
  C   C212      1.0  0.67815  0.50935  0.51220  1.0000
  H   H172      1.0  0.67999  0.57540  0.56300  1.0000
  H   H173      1.0  0.64224  0.04140  0.61497  1.0000
  H   H174      1.0  0.71012  0.51005  0.48130  1.0000
  H   H175      1.0  0.65397  0.51699  0.46143  1.0000
  H   H176      1.0  0.67189  0.97667  0.53714  1.0000
