data_image0
_chemical_formula_structural       C3HCH3C3HCH3C3HCH3C3HCH3C3HCH3C3HCH3C3HCH3C3HCH3C3HCH3C3HCH3C3HCH3C3HCH3C3HCH3C3HCH3C3HCH3C3HCH3C3HCH3C3HCH3CNCNCNCNCNCNCNCNCNCNCNCNCNCNCNCNCNCNCNCNCNCNCNCNCNCNCNCNCNCNCNCNCNCNCNCNC3HCH3C3HCH3C3HCH3C3HCH3C3HCH3C3HCH3C3HCH3C3HCH3C3HCH3C3HCH3C3HCH3C3HCH3C3HCH3C3HCH3C3HCH3C3HCH3C3HCH3C3HCH3
_chemical_formula_sum              "C180 H144 N36"
_cell_length_a       34.082
_cell_length_b       33.9211
_cell_length_c       14.8831
_cell_angle_alpha    90
_cell_angle_beta     90
_cell_angle_gamma    90.2783

_space_group_name_H-M_alt    "P 1"
_space_group_IT_number       1

loop_
  _space_group_symop_operation_xyz
  'x, y, z'

loop_
  _atom_site_type_symbol
  _atom_site_label
  _atom_site_symmetry_multiplicity
  _atom_site_fract_x
  _atom_site_fract_y
  _atom_site_fract_z
  _atom_site_occupancy
  C   C1        1.0  0.97179  0.53187  0.33525  1.0000
  C   C2        1.0  0.00587  0.53317  0.27981  1.0000
  C   C3        1.0  0.03466  0.50336  0.28888  1.0000
  H   H1        1.0  0.05872  0.50438  0.24755  1.0000
  C   C4        1.0  0.01257  0.56293  0.20767  1.0000
  H   H2        1.0  0.98738  0.58175  0.19531  1.0000
  H   H3        1.0  0.01903  0.54805  0.14433  1.0000
  H   H4        1.0  0.03755  0.58159  0.22562  1.0000
  C   C5        1.0  0.47082  0.97201  0.33508  1.0000
  C   C6        1.0  0.47016  0.00610  0.27917  1.0000
  C   C7        1.0  0.50042  0.03470  0.28777  1.0000
  H   H5        1.0  0.49984  0.05878  0.24617  1.0000
  C   C8        1.0  0.44062  0.01298  0.20707  1.0000
  H   H6        1.0  0.42126  0.98790  0.19531  1.0000
  H   H7        1.0  0.45552  0.01901  0.14353  1.0000
  H   H8        1.0  0.42267  0.03840  0.22462  1.0000
  C   C9        1.0  0.05324  0.25026  0.33924  1.0000
  C   C10       1.0  0.07946  0.26848  0.27717  1.0000
  C   C11       1.0  0.08769  0.30925  0.28603  1.0000
  H   H9        1.0  0.10609  0.32224  0.24006  1.0000
  C   C12       1.0  0.09765  0.24798  0.19906  1.0000
  H   H10       1.0  0.08596  0.21850  0.18755  1.0000
  H   H11       1.0  0.12926  0.24580  0.20960  1.0000
  H   H12       1.0  0.09237  0.26473  0.13760  1.0000
  C   C13       1.0  0.95001  0.75292  0.33305  1.0000
  C   C14       1.0  0.92174  0.73556  0.27446  1.0000
  C   C15       1.0  0.91353  0.69474  0.28214  1.0000
  H   H13       1.0  0.89347  0.68248  0.23885  1.0000
  C   C16       1.0  0.90133  0.75701  0.20068  1.0000
  H   H14       1.0  0.91371  0.78604  0.18708  1.0000
  H   H15       1.0  0.87038  0.76034  0.21776  1.0000
  H   H16       1.0  0.90351  0.74036  0.13806  1.0000
  C   C17       1.0  0.75272  0.05312  0.33874  1.0000
  C   C18       1.0  0.73492  0.07981  0.27727  1.0000
  C   C19       1.0  0.69443  0.08815  0.28611  1.0000
  H   H17       1.0  0.68178  0.10685  0.24047  1.0000
  C   C20       1.0  0.75561  0.09837  0.19967  1.0000
  H   H18       1.0  0.78480  0.08657  0.18795  1.0000
  H   H19       1.0  0.75820  0.13007  0.21098  1.0000
  H   H20       1.0  0.73891  0.09341  0.13802  1.0000
  C   C21       1.0  0.25049  0.95030  0.33182  1.0000
  C   C22       1.0  0.26752  0.92178  0.27352  1.0000
  C   C23       1.0  0.30804  0.91341  0.28151  1.0000
  H   H21       1.0  0.32005  0.89319  0.23836  1.0000
  C   C24       1.0  0.24601  0.90127  0.19966  1.0000
  H   H22       1.0  0.21737  0.91387  0.18558  1.0000
  H   H23       1.0  0.24216  0.87022  0.21700  1.0000
  H   H24       1.0  0.26276  0.90323  0.13722  1.0000
  C   C25       1.0  0.43332  0.83333  0.33438  1.0000
  C   C26       1.0  0.46210  0.81633  0.27692  1.0000
  C   C27       1.0  0.47057  0.77559  0.28497  1.0000
  H   H25       1.0  0.49062  0.76344  0.24181  1.0000
  C   C28       1.0  0.48266  0.83806  0.20356  1.0000
  H   H26       1.0  0.47125  0.86751  0.19195  1.0000
  H   H27       1.0  0.47950  0.82201  0.14032  1.0000
  H   H28       1.0  0.51382  0.84053  0.21965  1.0000
  C   C29       1.0  0.56963  0.16944  0.33773  1.0000
  C   C30       1.0  0.54072  0.18590  0.27981  1.0000
  C   C31       1.0  0.53224  0.22671  0.28603  1.0000
  H   H29       1.0  0.51211  0.23847  0.24249  1.0000
  C   C32       1.0  0.52002  0.16342  0.20787  1.0000
  H   H30       1.0  0.53139  0.13382  0.19797  1.0000
  H   H31       1.0  0.52312  0.17877  0.14373  1.0000
  H   H32       1.0  0.48888  0.16117  0.22431  1.0000
  C   C33       1.0  0.83347  0.56884  0.33580  1.0000
  C   C34       1.0  0.81594  0.54026  0.27801  1.0000
  C   C35       1.0  0.77515  0.53241  0.28552  1.0000
  H   H33       1.0  0.76264  0.51251  0.24210  1.0000
  C   C36       1.0  0.83718  0.51932  0.20480  1.0000
  H   H34       1.0  0.86691  0.53011  0.19397  1.0000
  H   H35       1.0  0.82156  0.52303  0.14131  1.0000
  H   H36       1.0  0.83856  0.48792  0.22047  1.0000
  C   C37       1.0  0.16927  0.43438  0.33960  1.0000
  C   C38       1.0  0.18632  0.46311  0.28147  1.0000
  C   C39       1.0  0.22721  0.47083  0.28710  1.0000
  H   H37       1.0  0.23936  0.49084  0.24342  1.0000
  C   C40       1.0  0.16437  0.48434  0.20986  1.0000
  H   H38       1.0  0.13446  0.47373  0.20083  1.0000
  H   H39       1.0  0.17923  0.48068  0.14540  1.0000
  H   H40       1.0  0.16335  0.51571  0.22598  1.0000
  C   C41       1.0  0.09563  0.11369  0.32202  1.0000
  C   C42       1.0  0.09502  0.08681  0.24868  1.0000
  C   C43       1.0  0.11832  0.05259  0.25359  1.0000
  H   H41       1.0  0.11655  0.03249  0.20217  1.0000
  C   C44       1.0  0.07061  0.09195  0.16640  1.0000
  H   H42       1.0  0.05624  0.12055  0.16319  1.0000
  H   H43       1.0  0.04808  0.06900  0.16388  1.0000
  H   H44       1.0  0.08908  0.08953  0.10670  1.0000
  C   C45       1.0  0.90749  0.88973  0.32263  1.0000
  C   C46       1.0  0.90778  0.91683  0.24968  1.0000
  C   C47       1.0  0.88450  0.95103  0.25558  1.0000
  H   H45       1.0  0.88603  0.97124  0.20434  1.0000
  C   C48       1.0  0.93183  0.91189  0.16679  1.0000
  H   H46       1.0  0.94623  0.88333  0.16292  1.0000
  H   H47       1.0  0.95433  0.93489  0.16404  1.0000
  H   H48       1.0  0.91311  0.91443  0.10755  1.0000
  C   C49       1.0  0.88936  0.09547  0.32304  1.0000
  C   C50       1.0  0.91656  0.09451  0.25057  1.0000
  C   C51       1.0  0.95123  0.11729  0.25678  1.0000
  H   H49       1.0  0.97142  0.11534  0.20582  1.0000
  C   C52       1.0  0.91125  0.07027  0.16785  1.0000
  H   H50       1.0  0.88240  0.05639  0.16360  1.0000
  H   H51       1.0  0.93345  0.04720  0.16581  1.0000
  H   H52       1.0  0.91456  0.08889  0.10845  1.0000
  C   C53       1.0  0.11363  0.90804  0.32027  1.0000
  C   C54       1.0  0.08640  0.90900  0.24785  1.0000
  C   C55       1.0  0.05178  0.88618  0.25409  1.0000
  H   H53       1.0  0.03152  0.88814  0.20326  1.0000
  C   C56       1.0  0.09163  0.93331  0.16519  1.0000
  H   H54       1.0  0.12045  0.94725  0.16091  1.0000
  H   H55       1.0  0.06937  0.95633  0.16326  1.0000
  H   H56       1.0  0.08834  0.91471  0.10574  1.0000
  C   C57       1.0  0.36193  0.54352  0.34960  1.0000
  C   C58       1.0  0.35985  0.57188  0.27932  1.0000
  C   C59       1.0  0.38332  0.60644  0.28532  1.0000
  H   H57       1.0  0.38378  0.62566  0.23211  1.0000
  C   C60       1.0  0.33674  0.56617  0.19541  1.0000
  H   H58       1.0  0.32009  0.53871  0.19425  1.0000
  H   H59       1.0  0.35645  0.56609  0.13757  1.0000
  H   H60       1.0  0.31599  0.59036  0.18790  1.0000
  C   C61       1.0  0.64090  0.45940  0.34976  1.0000
  C   C62       1.0  0.64305  0.43132  0.27890  1.0000
  C   C63       1.0  0.61956  0.39675  0.28399  1.0000
  H   H61       1.0  0.61916  0.37774  0.23039  1.0000
  C   C64       1.0  0.66626  0.43735  0.19525  1.0000
  H   H62       1.0  0.68289  0.46483  0.19467  1.0000
  H   H63       1.0  0.64663  0.43762  0.13728  1.0000
  H   H64       1.0  0.68705  0.41321  0.18742  1.0000
  C   C65       1.0  0.54475  0.64222  0.35122  1.0000
  C   C66       1.0  0.57266  0.64436  0.28021  1.0000
  C   C67       1.0  0.60715  0.62123  0.28580  1.0000
  H   H65       1.0  0.62596  0.62071  0.23203  1.0000
  C   C68       1.0  0.56649  0.66713  0.19593  1.0000
  H   H66       1.0  0.53914  0.68358  0.19516  1.0000
  H   H67       1.0  0.56612  0.64707  0.13857  1.0000
  H   H68       1.0  0.59050  0.68821  0.18723  1.0000
  C   C69       1.0  0.45806  0.36066  0.34816  1.0000
  C   C70       1.0  0.43033  0.35880  0.27679  1.0000
  C   C71       1.0  0.39586  0.38196  0.28238  1.0000
  H   H69       1.0  0.37715  0.38269  0.22842  1.0000
  C   C72       1.0  0.43666  0.33626  0.19225  1.0000
  H   H70       1.0  0.46396  0.31972  0.19169  1.0000
  H   H71       1.0  0.43727  0.35650  0.13521  1.0000
  H   H72       1.0  0.41261  0.31530  0.18285  1.0000
  C   C73       1.0  0.12849  0.42435  0.34172  1.0000
  N   N1        1.0  0.09941  0.45182  0.34405  1.0000
  C   C74       1.0  0.06064  0.44172  0.35027  1.0000
  N   N2        1.0  0.05160  0.40253  0.35377  1.0000
  C   C75       1.0  0.07963  0.37405  0.35308  1.0000
  N   N3        1.0  0.11769  0.38576  0.34653  1.0000
  C   C76       1.0  0.87424  0.57891  0.33563  1.0000
  N   N4        1.0  0.90318  0.55131  0.33502  1.0000
  C   C77       1.0  0.94199  0.56137  0.33539  1.0000
  N   N5        1.0  0.95143  0.60041  0.33961  1.0000
  C   C78       1.0  0.92354  0.62898  0.34253  1.0000
  N   N6        1.0  0.88530  0.61745  0.33969  1.0000
  C   C79       1.0  0.57984  0.12864  0.34020  1.0000
  N   N7        1.0  0.55236  0.09934  0.34264  1.0000
  C   C80       1.0  0.56214  0.06047  0.34910  1.0000
  N   N8        1.0  0.60109  0.05150  0.35295  1.0000
  C   C81       1.0  0.62964  0.07977  0.35230  1.0000
  N   N9        1.0  0.61820  0.11800  0.34542  1.0000
  C   C82       1.0  0.42317  0.87413  0.33456  1.0000
  N   N10       1.0  0.45081  0.90327  0.33431  1.0000
  C   C83       1.0  0.44107  0.94221  0.33512  1.0000
  N   N11       1.0  0.40227  0.95159  0.33930  1.0000
  C   C84       1.0  0.37362  0.92348  0.34193  1.0000
  N   N12       1.0  0.38486  0.88506  0.33875  1.0000
  C   C85       1.0  0.99835  0.15676  0.33786  1.0000
  N   N13       1.0  0.00686  0.19598  0.34045  1.0000
  C   C86       1.0  0.04479  0.20913  0.33940  1.0000
  N   N14       1.0  0.07434  0.18215  0.33567  1.0000
  C   C87       1.0  0.06644  0.14288  0.33172  1.0000
  N   N15       1.0  0.02847  0.13093  0.33232  1.0000
  C   C88       1.0  0.00481  0.84661  0.33533  1.0000
  N   N16       1.0  0.99633  0.80738  0.33604  1.0000
  C   C89       1.0  0.95842  0.79413  0.33514  1.0000
  N   N17       1.0  0.92890  0.82120  0.33348  1.0000
  C   C90       1.0  0.93673  0.86051  0.33130  1.0000
  N   N18       1.0  0.97469  0.87249  0.33156  1.0000
  C   C91       1.0  0.84532  0.99789  0.33719  1.0000
  N   N19       1.0  0.80635  0.00643  0.33966  1.0000
  C   C92       1.0  0.79361  0.04456  0.33898  1.0000
  N   N20       1.0  0.82079  0.07425  0.33582  1.0000
  C   C93       1.0  0.85980  0.06631  0.33204  1.0000
  N   N21       1.0  0.87129  0.02817  0.33238  1.0000
  C   C94       1.0  0.15779  0.00555  0.33378  1.0000
  N   N22       1.0  0.19676  0.99699  0.33476  1.0000
  C   C95       1.0  0.20955  0.95886  0.33359  1.0000
  N   N23       1.0  0.18226  0.92924  0.33152  1.0000
  C   C96       1.0  0.14322  0.93718  0.32908  1.0000
  N   N24       1.0  0.13175  0.97532  0.32982  1.0000
  C   C97       1.0  0.50619  0.65757  0.34555  1.0000
  N   N25       1.0  0.49761  0.69673  0.34441  1.0000
  C   C98       1.0  0.45965  0.70953  0.34532  1.0000
  N   N26       1.0  0.43020  0.68209  0.34727  1.0000
  C   C99       1.0  0.43811  0.64288  0.34989  1.0000
  N   N27       1.0  0.47609  0.63138  0.34952  1.0000
  C   C100      1.0  0.49662  0.34531  0.34257  1.0000
  N   N28       1.0  0.50520  0.30614  0.34220  1.0000
  C   C101      1.0  0.54316  0.29333  0.34368  1.0000
  N   N29       1.0  0.57259  0.32080  0.34563  1.0000
  C   C102      1.0  0.56469  0.36002  0.34746  1.0000
  N   N30       1.0  0.52671  0.37152  0.34660  1.0000
  C   C103      1.0  0.65689  0.49801  0.34472  1.0000
  N   N31       1.0  0.69602  0.50629  0.34378  1.0000
  C   C104      1.0  0.70951  0.54429  0.34530  1.0000
  N   N32       1.0  0.68273  0.57414  0.34773  1.0000
  C   C105      1.0  0.64354  0.56654  0.35005  1.0000
  N   N33       1.0  0.63141  0.52848  0.34907  1.0000
  C   C106      1.0  0.34597  0.50494  0.34358  1.0000
  N   N34       1.0  0.30684  0.49670  0.34315  1.0000
  C   C107      1.0  0.29335  0.45870  0.34406  1.0000
  N   N35       1.0  0.32014  0.42884  0.34561  1.0000
  C   C108      1.0  0.35934  0.43641  0.34739  1.0000
  N   N36       1.0  0.37148  0.47447  0.34698  1.0000
  C   C109      1.0  0.03057  0.47120  0.34896  1.0000
  C   C110      1.0  0.99631  0.46990  0.40395  1.0000
  C   C111      1.0  0.96784  0.50004  0.39607  1.0000
  H   H73       1.0  0.94374  0.49916  0.43723  1.0000
  C   C112      1.0  0.98999  0.43876  0.47296  1.0000
  H   H74       1.0  0.01587  0.43644  0.51578  1.0000
  H   H75       1.0  0.98448  0.41065  0.43974  1.0000
  H   H76       1.0  0.96494  0.44467  0.51660  1.0000
  C   C113      1.0  0.53238  0.03040  0.34782  1.0000
  C   C114      1.0  0.53306  0.99612  0.40323  1.0000
  C   C115      1.0  0.50247  0.96783  0.39582  1.0000
  H   H77       1.0  0.50292  0.94368  0.43721  1.0000
  C   C116      1.0  0.56400  0.98962  0.47213  1.0000
  H   H78       1.0  0.56674  0.01563  0.51488  1.0000
  H   H79       1.0  0.59186  0.98392  0.43881  1.0000
  H   H80       1.0  0.55776  0.96450  0.51585  1.0000
  C   C117      1.0  0.07023  0.33304  0.35304  1.0000
  C   C118      1.0  0.04404  0.31474  0.41505  1.0000
  C   C119      1.0  0.03561  0.27397  0.40605  1.0000
  H   H81       1.0  0.01730  0.26088  0.45205  1.0000
  C   C120      1.0  0.02671  0.33510  0.49412  1.0000
  H   H82       1.0  0.03869  0.36451  0.50471  1.0000
  H   H83       1.0  0.03268  0.31833  0.55521  1.0000
  H   H84       1.0  0.99500  0.33728  0.48548  1.0000
  C   C121      1.0  0.93327  0.66992  0.34363  1.0000
  C   C122      1.0  0.96205  0.68715  0.40111  1.0000
  C   C123      1.0  0.97002  0.72810  0.39409  1.0000
  H   H85       1.0  0.99007  0.74044  0.43727  1.0000
  C   C124      1.0  0.98313  0.66540  0.47332  1.0000
  H   H86       1.0  0.97232  0.63551  0.48359  1.0000
  H   H87       1.0  0.97975  0.68081  0.53727  1.0000
  H   H88       1.0  0.01431  0.66398  0.45691  1.0000
  C   C125      1.0  0.67043  0.07037  0.35253  1.0000
  C   C126      1.0  0.68831  0.04372  0.41396  1.0000
  C   C127      1.0  0.72880  0.03518  0.40496  1.0000
  H   H89       1.0  0.74156  0.01654  0.45059  1.0000
  C   C128      1.0  0.66777  0.02599  0.49251  1.0000
  H   H90       1.0  0.63869  0.03815  0.50345  1.0000
  H   H91       1.0  0.68455  0.03155  0.55378  1.0000
  H   H92       1.0  0.66511  0.99419  0.48294  1.0000
  C   C129      1.0  0.33294  0.93324  0.34300  1.0000
  C   C130      1.0  0.31604  0.96223  0.40024  1.0000
  C   C131      1.0  0.27539  0.97036  0.39291  1.0000
  H   H93       1.0  0.26332  0.99058  0.43594  1.0000
  C   C132      1.0  0.33786  0.98340  0.47253  1.0000
  H   H94       1.0  0.36742  0.97239  0.48320  1.0000
  H   H95       1.0  0.32235  0.98018  0.53634  1.0000
  H   H96       1.0  0.33977  0.01469  0.45590  1.0000
  C   C133      1.0  0.45097  0.75064  0.34681  1.0000
  C   C134      1.0  0.42261  0.76774  0.40519  1.0000
  C   C135      1.0  0.41398  0.80837  0.39668  1.0000
  H   H97       1.0  0.39388  0.82042  0.43989  1.0000
  C   C136      1.0  0.40248  0.74619  0.47954  1.0000
  H   H98       1.0  0.41509  0.71743  0.49351  1.0000
  H   H99       1.0  0.37153  0.74228  0.46282  1.0000
  H   H100      1.0  0.40466  0.76309  0.54183  1.0000
  C   C137      1.0  0.55186  0.25222  0.34667  1.0000
  C   C138      1.0  0.58025  0.23563  0.40573  1.0000
  C   C139      1.0  0.58896  0.19496  0.39885  1.0000
  H   H101      1.0  0.60909  0.18332  0.44256  1.0000
  C   C140      1.0  0.60034  0.25775  0.47929  1.0000
  H   H102      1.0  0.58734  0.28638  0.49290  1.0000
  H   H103      1.0  0.63117  0.26203  0.46191  1.0000
  H   H104      1.0  0.59862  0.24111  0.54200  1.0000
  C   C141      1.0  0.75064  0.55245  0.34712  1.0000
  C   C142      1.0  0.76828  0.58053  0.40596  1.0000
  C   C143      1.0  0.80895  0.58854  0.39797  1.0000
  H   H105      1.0  0.82133  0.60854  0.44137  1.0000
  C   C144      1.0  0.74721  0.60101  0.48022  1.0000
  H   H106      1.0  0.71824  0.58877  0.49386  1.0000
  H   H107      1.0  0.74413  0.63218  0.46363  1.0000
  H   H108      1.0  0.76385  0.59849  0.54266  1.0000
  C   C145      1.0  0.25222  0.45059  0.34729  1.0000
  C   C146      1.0  0.23505  0.42244  0.40668  1.0000
  C   C147      1.0  0.19432  0.41452  0.40041  1.0000
  H   H109      1.0  0.18231  0.39447  0.44424  1.0000
  C   C148      1.0  0.25669  0.40181  0.47987  1.0000
  H   H110      1.0  0.28566  0.41417  0.49283  1.0000
  H   H111      1.0  0.25984  0.37072  0.46258  1.0000
  H   H112      1.0  0.24043  0.40400  0.54292  1.0000
  C   C149      1.0  0.14241  0.04423  0.32858  1.0000
  C   C150      1.0  0.14442  0.07204  0.40004  1.0000
  C   C151      1.0  0.12109  0.10648  0.39514  1.0000
  H   H113      1.0  0.12053  0.12526  0.44914  1.0000
  C   C152      1.0  0.16727  0.06580  0.48404  1.0000
  H   H114      1.0  0.18391  0.03849  0.48423  1.0000
  H   H115      1.0  0.14738  0.06505  0.54155  1.0000
  H   H116      1.0  0.18802  0.09010  0.49298  1.0000
  C   C153      1.0  0.86074  0.95922  0.33123  1.0000
  C   C154      1.0  0.85907  0.93123  0.40236  1.0000
  C   C155      1.0  0.88239  0.89680  0.39647  1.0000
  H   H117      1.0  0.88319  0.87789  0.45022  1.0000
  C   C156      1.0  0.83660  0.93725  0.48698  1.0000
  H   H118      1.0  0.81998  0.96457  0.48795  1.0000
  H   H119      1.0  0.85674  0.93783  0.54404  1.0000
  H   H120      1.0  0.81587  0.91293  0.49604  1.0000
  C   C157      1.0  0.95974  0.14122  0.33222  1.0000
  C   C158      1.0  0.93165  0.14366  0.40274  1.0000
  C   C159      1.0  0.89681  0.12078  0.39661  1.0000
  H   H121      1.0  0.87781  0.12043  0.45007  1.0000
  C   C160      1.0  0.93790  0.16641  0.48712  1.0000
  H   H122      1.0  0.96562  0.18246  0.48869  1.0000
  H   H123      1.0  0.93749  0.14639  0.54456  1.0000
  H   H124      1.0  0.91434  0.18782  0.49506  1.0000
  C   C161      1.0  0.04339  0.86217  0.32948  1.0000
  C   C162      1.0  0.07150  0.85973  0.39993  1.0000
  C   C163      1.0  0.10630  0.88268  0.39381  1.0000
  H   H125      1.0  0.12534  0.88303  0.44719  1.0000
  C   C164      1.0  0.06532  0.83685  0.48415  1.0000
  H   H126      1.0  0.03768  0.82065  0.48549  1.0000
  H   H127      1.0  0.06559  0.85681  0.54171  1.0000
  H   H128      1.0  0.08899  0.81556  0.49205  1.0000
  C   C165      1.0  0.40894  0.61328  0.35845  1.0000
  C   C166      1.0  0.40960  0.58582  0.43069  1.0000
  C   C167      1.0  0.38623  0.55146  0.42460  1.0000
  H   H129      1.0  0.38796  0.53103  0.47531  1.0000
  C   C168      1.0  0.43404  0.59057  0.51313  1.0000
  H   H130      1.0  0.44836  0.61929  0.51754  1.0000
  H   H131      1.0  0.45661  0.56785  0.51460  1.0000
  H   H132      1.0  0.41561  0.58744  0.57276  1.0000
  C   C169      1.0  0.59384  0.38961  0.35679  1.0000
  C   C170      1.0  0.59309  0.41678  0.42960  1.0000
  C   C171      1.0  0.61649  0.45115  0.42441  1.0000
  H   H133      1.0  0.61469  0.47136  0.47556  1.0000
  C   C172      1.0  0.56852  0.41171  0.51173  1.0000
  H   H134      1.0  0.55414  0.38299  0.51538  1.0000
  H   H135      1.0  0.54599  0.43447  0.51355  1.0000
  H   H136      1.0  0.58687  0.41454  0.57157  1.0000
  C   C173      1.0  0.61443  0.59590  0.35933  1.0000
  C   C174      1.0  0.58742  0.59519  0.43220  1.0000
  C   C175      1.0  0.55312  0.61823  0.42653  1.0000
  H   H137      1.0  0.53300  0.61637  0.47769  1.0000
  C   C176      1.0  0.59252  0.57086  0.51478  1.0000
  H   H138      1.0  0.62109  0.55668  0.51853  1.0000
  H   H139      1.0  0.56986  0.54802  0.51716  1.0000
  H   H140      1.0  0.58976  0.58949  0.57427  1.0000
  C   C177      1.0  0.38844  0.40701  0.35632  1.0000
  C   C178      1.0  0.41529  0.40744  0.42955  1.0000
  C   C179      1.0  0.44958  0.38438  0.42383  1.0000
  H   H141      1.0  0.46960  0.38605  0.47523  1.0000
  C   C180      1.0  0.41004  0.43149  0.51251  1.0000
  H   H142      1.0  0.38148  0.44570  0.51618  1.0000
  H   H143      1.0  0.43273  0.45428  0.51558  1.0000
  H   H144      1.0  0.41263  0.41264  0.57167  1.0000
