data_image0
_chemical_formula_structural       C4HNO2C4HNO2C2H2C2H2C2H2C2H2C4HNO2C4HNO2C4HNO2C4HNO2C2H2C2H2C2H2C2H2C4HNO2C4HNO2C4HNO2C4HNO2CNCNCNCNCNCNCNCNCNCNCNCNCNCNCNCNCNCNCNCNCNCNCNCNCNCNCNCNCNCNCNCNCNCNCNCNC2H2C2H2C4HNO2C4HNO2C4HNO2C4HNO2C2H2C2H2C2H2C2H2C4HNO2C4HNO2C4HNO2C4HNO2C2H2C2H2C2H2C2H2
_chemical_formula_sum              "C144 H54 N54 O36"
_cell_length_a       33.833
_cell_length_b       33.6734
_cell_length_c       14.7829
_cell_angle_alpha    90
_cell_angle_beta     90
_cell_angle_gamma    90.2784

_space_group_name_H-M_alt    "P 1"
_space_group_IT_number       1

loop_
  _space_group_symop_operation_xyz
  'x, y, z'

loop_
  _atom_site_type_symbol
  _atom_site_label
  _atom_site_symmetry_multiplicity
  _atom_site_fract_x
  _atom_site_fract_y
  _atom_site_fract_z
  _atom_site_occupancy
  C   C1        1.0  0.03500  0.47632  0.34674  1.0000
  C   C2        1.0  0.02080  0.49221  0.26462  1.0000
  C   C3        1.0  0.99086  0.52162  0.26343  1.0000
  C   C4        1.0  0.97489  0.53546  0.34638  1.0000
  H   H1        1.0  0.03214  0.48225  0.20456  1.0000
  N   N1        1.0  0.97635  0.53729  0.18105  1.0000
  O   O1        1.0  0.96097  0.51059  0.13300  1.0000
  O   O2        1.0  0.00338  0.55394  0.13653  1.0000
  C   C5        1.0  0.53496  0.03389  0.34650  1.0000
  C   C6        1.0  0.51982  0.01890  0.26423  1.0000
  C   C7        1.0  0.48988  0.98921  0.26292  1.0000
  C   C8        1.0  0.47474  0.97433  0.34588  1.0000
  H   H2        1.0  0.53060  0.02960  0.20419  1.0000
  N   N2        1.0  0.47472  0.97410  0.18047  1.0000
  O   O3        1.0  0.50137  0.95792  0.13438  1.0000
  O   O4        1.0  0.45914  0.00107  0.13400  1.0000
  C   C9        1.0  0.06500  0.31772  0.26874  1.0000
  C   C10       1.0  0.05621  0.27681  0.26840  1.0000
  H   H3        1.0  0.06702  0.33240  0.20819  1.0000
  H   H4        1.0  0.05191  0.26269  0.20781  1.0000
  C   C11       1.0  0.94026  0.69459  0.26832  1.0000
  C   C12       1.0  0.94924  0.73547  0.26788  1.0000
  H   H5        1.0  0.93560  0.68045  0.20785  1.0000
  H   H6        1.0  0.95097  0.75011  0.20729  1.0000
  C   C13       1.0  0.69344  0.06770  0.26759  1.0000
  C   C14       1.0  0.73411  0.05901  0.26722  1.0000
  H   H7        1.0  0.67920  0.07134  0.20702  1.0000
  H   H8        1.0  0.74850  0.05642  0.20656  1.0000
  C   C15       1.0  0.31659  0.94395  0.26895  1.0000
  C   C16       1.0  0.27610  0.95347  0.26861  1.0000
  H   H9        1.0  0.33111  0.94153  0.20838  1.0000
  H   H10       1.0  0.26210  0.95775  0.20799  1.0000
  C   C17       1.0  0.45557  0.75400  0.34596  1.0000
  C   C18       1.0  0.45000  0.77457  0.26378  1.0000
  C   C19       1.0  0.44053  0.81558  0.26266  1.0000
  C   C20       1.0  0.43655  0.83631  0.34574  1.0000
  H   H11       1.0  0.45268  0.75966  0.20369  1.0000
  N   N3        1.0  0.43486  0.83625  0.18030  1.0000
  O   O5        1.0  0.40682  0.82158  0.13547  1.0000
  O   O6        1.0  0.46557  0.83575  0.13253  1.0000
  C   C21       1.0  0.55416  0.25451  0.34541  1.0000
  C   C22       1.0  0.55715  0.23349  0.26309  1.0000
  C   C23       1.0  0.56644  0.19244  0.26160  1.0000
  C   C24       1.0  0.57255  0.17208  0.34446  1.0000
  H   H12       1.0  0.55297  0.24816  0.20315  1.0000
  N   N4        1.0  0.57027  0.17148  0.17906  1.0000
  O   O7        1.0  0.59750  0.18582  0.13118  1.0000
  O   O8        1.0  0.53865  0.17208  0.13451  1.0000
  C   C25       1.0  0.75477  0.55451  0.34604  1.0000
  C   C26       1.0  0.77545  0.55929  0.26378  1.0000
  C   C27       1.0  0.81648  0.56826  0.26258  1.0000
  C   C28       1.0  0.83716  0.57234  0.34563  1.0000
  H   H13       1.0  0.76059  0.55650  0.20372  1.0000
  N   N5        1.0  0.83721  0.57344  0.18018  1.0000
  O   O9        1.0  0.82326  0.60168  0.13489  1.0000
  O   O10       1.0  0.83605  0.54246  0.13288  1.0000
  C   C29       1.0  0.25519  0.45447  0.34538  1.0000
  C   C30       1.0  0.23424  0.45133  0.26309  1.0000
  C   C31       1.0  0.19307  0.44305  0.26173  1.0000
  C   C32       1.0  0.17247  0.43821  0.34469  1.0000
  H   H14       1.0  0.24902  0.45471  0.20309  1.0000
  N   N6        1.0  0.17218  0.43906  0.17922  1.0000
  O   O11       1.0  0.18556  0.41099  0.13254  1.0000
  O   O12       1.0  0.17393  0.47044  0.13339  1.0000
  C   C33       1.0  0.10997  0.10158  0.26880  1.0000
  C   C34       1.0  0.13358  0.06731  0.26798  1.0000
  H   H15       1.0  0.09925  0.11210  0.20859  1.0000
  H   H16       1.0  0.13936  0.05377  0.20739  1.0000
  C   C35       1.0  0.89808  0.90862  0.26977  1.0000
  C   C36       1.0  0.87449  0.94292  0.26907  1.0000
  H   H17       1.0  0.90730  0.89706  0.20926  1.0000
  H   H18       1.0  0.86726  0.95552  0.20825  1.0000
  C   C37       1.0  0.90910  0.10992  0.26811  1.0000
  C   C38       1.0  0.94392  0.13292  0.26729  1.0000
  H   H19       1.0  0.89853  0.09905  0.20800  1.0000
  H   H20       1.0  0.95770  0.13827  0.20677  1.0000
  C   C39       1.0  0.10041  0.90178  0.26919  1.0000
  C   C40       1.0  0.06572  0.87859  0.26858  1.0000
  H   H21       1.0  0.11092  0.91262  0.20900  1.0000
  H   H22       1.0  0.05187  0.87319  0.20817  1.0000
  C   C41       1.0  0.36464  0.54723  0.34612  1.0000
  C   C42       1.0  0.37536  0.56535  0.26352  1.0000
  C   C43       1.0  0.39928  0.60003  0.26161  1.0000
  C   C44       1.0  0.41221  0.61707  0.34434  1.0000
  H   H23       1.0  0.36772  0.55201  0.20369  1.0000
  N   N7        1.0  0.41225  0.61676  0.17879  1.0000
  O   O13       1.0  0.43277  0.59261  0.13436  1.0000
  O   O14       1.0  0.38353  0.62744  0.13092  1.0000
  C   C45       1.0  0.64569  0.46109  0.34603  1.0000
  C   C46       1.0  0.63410  0.44339  0.26355  1.0000
  C   C47       1.0  0.61011  0.40875  0.26199  1.0000
  C   C48       1.0  0.59795  0.39133  0.34495  1.0000
  H   H24       1.0  0.64107  0.45705  0.20367  1.0000
  N   N8        1.0  0.59642  0.39237  0.17940  1.0000
  O   O15       1.0  0.57560  0.41671  0.13630  1.0000
  O   O16       1.0  0.62473  0.38180  0.13012  1.0000
  C   C49       1.0  0.54917  0.64568  0.34478  1.0000
  C   C50       1.0  0.56615  0.63335  0.26228  1.0000
  C   C51       1.0  0.60074  0.60974  0.26054  1.0000
  C   C52       1.0  0.61886  0.59867  0.34330  1.0000
  H   H25       1.0  0.55209  0.63960  0.20261  1.0000
  N   N9        1.0  0.61645  0.59540  0.17802  1.0000
  O   O17       1.0  0.59200  0.57372  0.13699  1.0000
  O   O18       1.0  0.62646  0.62350  0.12688  1.0000
  C   C53       1.0  0.46087  0.36293  0.34645  1.0000
  C   C54       1.0  0.44271  0.37353  0.26400  1.0000
  C   C55       1.0  0.40806  0.39707  0.26244  1.0000
  C   C56       1.0  0.39101  0.40960  0.34534  1.0000
  H   H26       1.0  0.45607  0.36632  0.20406  1.0000
  N   N10       1.0  0.39139  0.41010  0.17976  1.0000
  O   O19       1.0  0.41534  0.43120  0.13568  1.0000
  O   O20       1.0  0.38091  0.38123  0.13144  1.0000
  C   C57       1.0  0.13186  0.42823  0.34673  1.0000
  N   N11       1.0  0.10346  0.45673  0.34572  1.0000
  C   C58       1.0  0.06442  0.44669  0.34683  1.0000
  N   N12       1.0  0.05400  0.40760  0.34831  1.0000
  C   C59       1.0  0.08203  0.37878  0.34856  1.0000
  N   N13       1.0  0.12082  0.38939  0.34809  1.0000
  C   C60       1.0  0.87765  0.58282  0.34794  1.0000
  N   N14       1.0  0.90627  0.55457  0.34759  1.0000
  C   C61       1.0  0.94521  0.56494  0.34860  1.0000
  N   N15       1.0  0.95531  0.60411  0.34898  1.0000
  C   C62       1.0  0.92705  0.63272  0.34871  1.0000
  N   N16       1.0  0.88834  0.62177  0.34823  1.0000
  C   C63       1.0  0.58286  0.13149  0.34638  1.0000
  N   N17       1.0  0.55456  0.10266  0.34570  1.0000
  C   C64       1.0  0.56459  0.06357  0.34672  1.0000
  N   N18       1.0  0.60350  0.05351  0.34787  1.0000
  C   C65       1.0  0.63217  0.08199  0.34781  1.0000
  N   N19       1.0  0.62155  0.12086  0.34732  1.0000
  C   C66       1.0  0.42629  0.87694  0.34812  1.0000
  N   N20       1.0  0.45474  0.90562  0.34720  1.0000
  C   C67       1.0  0.44492  0.94475  0.34801  1.0000
  N   N21       1.0  0.40607  0.95503  0.34862  1.0000
  C   C68       1.0  0.37722  0.92674  0.34896  1.0000
  N   N22       1.0  0.38764  0.88779  0.34886  1.0000
  C   C69       1.0  0.99988  0.16133  0.34883  1.0000
  N   N23       1.0  0.00778  0.20095  0.34921  1.0000
  C   C70       1.0  0.04584  0.21431  0.34996  1.0000
  N   N24       1.0  0.07604  0.18770  0.35059  1.0000
  C   C71       1.0  0.06836  0.14803  0.34981  1.0000
  N   N25       1.0  0.03029  0.13527  0.34925  1.0000
  C   C72       1.0  0.00996  0.85000  0.35047  1.0000
  N   N26       1.0  0.00197  0.81039  0.35021  1.0000
  C   C73       1.0  0.96387  0.79711  0.34957  1.0000
  N   N27       1.0  0.93374  0.82379  0.34958  1.0000
  C   C74       1.0  0.94151  0.86343  0.34978  1.0000
  N   N28       1.0  0.97960  0.87611  0.35049  1.0000
  C   C75       1.0  0.84820  0.00018  0.34967  1.0000
  N   N29       1.0  0.80880  0.00799  0.34933  1.0000
  C   C76       1.0  0.79574  0.04620  0.34900  1.0000
  N   N30       1.0  0.82243  0.07663  0.34928  1.0000
  C   C77       1.0  0.86186  0.06902  0.34936  1.0000
  N   N31       1.0  0.87429  0.03084  0.34990  1.0000
  C   C78       1.0  0.16188  0.01134  0.34932  1.0000
  N   N32       1.0  0.20125  0.00331  0.34959  1.0000
  C   C79       1.0  0.21412  0.96501  0.35021  1.0000
  N   N33       1.0  0.18724  0.93475  0.35087  1.0000
  C   C80       1.0  0.14785  0.94256  0.35023  1.0000
  N   N34       1.0  0.13563  0.98081  0.34974  1.0000
  C   C81       1.0  0.51045  0.66076  0.34579  1.0000
  N   N35       1.0  0.50230  0.70028  0.34603  1.0000
  C   C82       1.0  0.46413  0.71305  0.34603  1.0000
  N   N36       1.0  0.43412  0.68594  0.34556  1.0000
  C   C83       1.0  0.44205  0.64641  0.34564  1.0000
  N   N37       1.0  0.48018  0.63425  0.34543  1.0000
  C   C84       1.0  0.49959  0.34786  0.34633  1.0000
  N   N38       1.0  0.50765  0.30833  0.34572  1.0000
  C   C85       1.0  0.54578  0.29548  0.34576  1.0000
  N   N39       1.0  0.57586  0.32251  0.34603  1.0000
  C   C86       1.0  0.56803  0.36206  0.34672  1.0000
  N   N40       1.0  0.52992  0.37431  0.34664  1.0000
  C   C87       1.0  0.66120  0.49992  0.34618  1.0000
  N   N41       1.0  0.70063  0.50796  0.34642  1.0000
  C   C88       1.0  0.71386  0.54624  0.34620  1.0000
  N   N42       1.0  0.68727  0.57652  0.34552  1.0000
  C   C89       1.0  0.64780  0.56870  0.34555  1.0000
  N   N43       1.0  0.63522  0.53043  0.34554  1.0000
  C   C90       1.0  0.34901  0.50846  0.34637  1.0000
  N   N44       1.0  0.30956  0.50060  0.34567  1.0000
  C   C91       1.0  0.29616  0.46239  0.34569  1.0000
  N   N45       1.0  0.32260  0.43198  0.34597  1.0000
  C   C92       1.0  0.36211  0.43963  0.34678  1.0000
  N   N46       1.0  0.37486  0.47784  0.34676  1.0000
  C   C93       1.0  0.98911  0.51948  0.42850  1.0000
  C   C94       1.0  0.01872  0.49020  0.42869  1.0000
  H   H27       1.0  0.97797  0.52904  0.48911  1.0000
  H   H28       1.0  0.02838  0.47913  0.48927  1.0000
  C   C95       1.0  0.48993  0.98939  0.42815  1.0000
  C   C96       1.0  0.51969  0.01880  0.42848  1.0000
  H   H29       1.0  0.47942  0.97903  0.48876  1.0000
  H   H30       1.0  0.53008  0.02917  0.48915  1.0000
  C   C97       1.0  0.05394  0.25540  0.35029  1.0000
  C   C98       1.0  0.06034  0.27576  0.43249  1.0000
  C   C99       1.0  0.06911  0.31700  0.43381  1.0000
  C   C100      1.0  0.07149  0.33816  0.35094  1.0000
  H   H31       1.0  0.05875  0.26055  0.49240  1.0000
  N   N47       1.0  0.07545  0.33755  0.51614  1.0000
  O   O21       1.0  0.10424  0.32347  0.55897  1.0000
  O   O22       1.0  0.04532  0.33608  0.56575  1.0000
  C   C101      1.0  0.95557  0.75605  0.34977  1.0000
  C   C102      1.0  0.95263  0.73498  0.43205  1.0000
  C   C103      1.0  0.94342  0.69382  0.43349  1.0000
  C   C104      1.0  0.93738  0.67340  0.35059  1.0000
  H   H32       1.0  0.95675  0.74967  0.49201  1.0000
  N   N48       1.0  0.93960  0.67281  0.51601  1.0000
  O   O23       1.0  0.91234  0.68683  0.56389  1.0000
  O   O24       1.0  0.97120  0.67376  0.56061  1.0000
  C   C105      1.0  0.75488  0.05426  0.34923  1.0000
  C   C106      1.0  0.73416  0.05835  0.43156  1.0000
  C   C107      1.0  0.69319  0.06717  0.43291  1.0000
  C   C108      1.0  0.67262  0.07177  0.34992  1.0000
  H   H33       1.0  0.74895  0.05520  0.49157  1.0000
  N   N49       1.0  0.67244  0.07177  0.51539  1.0000
  O   O25       1.0  0.68649  0.09984  0.56148  1.0000
  O   O26       1.0  0.67346  0.04054  0.56182  1.0000
  C   C109      1.0  0.25492  0.95655  0.35052  1.0000
  C   C110      1.0  0.27511  0.95003  0.43272  1.0000
  C   C111      1.0  0.31593  0.94051  0.43403  1.0000
  C   C112      1.0  0.33686  0.93738  0.35114  1.0000
  H   H34       1.0  0.26007  0.95208  0.49266  1.0000
  N   N50       1.0  0.33626  0.93414  0.51643  1.0000
  O   O27       1.0  0.32151  0.90564  0.55992  1.0000
  O   O28       1.0  0.33565  0.96463  0.56541  1.0000
  C   C113      1.0  0.44211  0.81564  0.42793  1.0000
  C   C114      1.0  0.45154  0.77495  0.42806  1.0000
  H   H35       1.0  0.43912  0.83003  0.48860  1.0000
  H   H36       1.0  0.45517  0.76068  0.48865  1.0000
  C   C115      1.0  0.56965  0.19322  0.42676  1.0000
  C   C116      1.0  0.56056  0.23398  0.42725  1.0000
  H   H37       1.0  0.57433  0.17912  0.48720  1.0000
  H   H38       1.0  0.55881  0.24859  0.48788  1.0000
  C   C117      1.0  0.81638  0.56757  0.42787  1.0000
  C   C118      1.0  0.77566  0.55870  0.42811  1.0000
  H   H39       1.0  0.83069  0.57084  0.48852  1.0000
  H   H40       1.0  0.76133  0.55560  0.48874  1.0000
  C   C119      1.0  0.19354  0.44128  0.42697  1.0000
  C   C120      1.0  0.23441  0.44939  0.42735  1.0000
  H   H41       1.0  0.17930  0.43738  0.48752  1.0000
  H   H42       1.0  0.24892  0.45138  0.48800  1.0000
  C   C121      1.0  0.14654  0.05011  0.34973  1.0000
  C   C122      1.0  0.13517  0.06775  0.43230  1.0000
  C   C123      1.0  0.11102  0.10206  0.43416  1.0000
  C   C124      1.0  0.09842  0.11918  0.35139  1.0000
  H   H43       1.0  0.14247  0.05429  0.49213  1.0000
  N   N51       1.0  0.09749  0.11829  0.51688  1.0000
  O   O29       1.0  0.07690  0.09366  0.56036  1.0000
  O   O30       1.0  0.12587  0.12931  0.56571  1.0000
  C   C125      1.0  0.86363  0.96148  0.35086  1.0000
  C   C126      1.0  0.87684  0.94510  0.43333  1.0000
  C   C127      1.0  0.90090  0.91076  0.43500  1.0000
  C   C128      1.0  0.91155  0.89235  0.35222  1.0000
  H   H44       1.0  0.87094  0.95949  0.49285  1.0000
  N   N52       1.0  0.91595  0.89556  0.51738  1.0000
  O   O31       1.0  0.93737  0.92065  0.55720  1.0000
  O   O32       1.0  0.88847  0.88526  0.56962  1.0000
  C   C129      1.0  0.96118  0.14590  0.34902  1.0000
  C   C130      1.0  0.94299  0.13533  0.43158  1.0000
  C   C131      1.0  0.90816  0.11177  0.43343  1.0000
  C   C132      1.0  0.89096  0.09910  0.35068  1.0000
  H   H45       1.0  0.95637  0.14279  0.49144  1.0000
  N   N53       1.0  0.89138  0.09886  0.51622  1.0000
  O   O33       1.0  0.91516  0.07788  0.56051  1.0000
  O   O34       1.0  0.88114  0.12780  0.56429  1.0000
  C   C133      1.0  0.04866  0.86548  0.35043  1.0000
  C   C134      1.0  0.06692  0.87605  0.43291  1.0000
  C   C135      1.0  0.10166  0.89979  0.43453  1.0000
  C   C136      1.0  0.11863  0.91258  0.35164  1.0000
  H   H46       1.0  0.05361  0.86860  0.49284  1.0000
  N   N54       1.0  0.11852  0.91272  0.51720  1.0000
  O   O35       1.0  0.09473  0.93356  0.56177  1.0000
  O   O36       1.0  0.12899  0.88379  0.56504  1.0000
  C   C137      1.0  0.40131  0.59898  0.42695  1.0000
  C   C138      1.0  0.37796  0.56431  0.42782  1.0000
  H   H47       1.0  0.41227  0.60948  0.48704  1.0000
  H   H48       1.0  0.37253  0.55050  0.48833  1.0000
  C   C139      1.0  0.60977  0.40896  0.42740  1.0000
  C   C140      1.0  0.63327  0.44354  0.42795  1.0000
  H   H49       1.0  0.59948  0.39810  0.48777  1.0000
  H   H50       1.0  0.63936  0.45703  0.48850  1.0000
  C   C141      1.0  0.60193  0.61121  0.42583  1.0000
  C   C142      1.0  0.56737  0.63430  0.42657  1.0000
  H   H51       1.0  0.61313  0.60150  0.48626  1.0000
  H   H52       1.0  0.55439  0.64081  0.48736  1.0000
  C   C143      1.0  0.40913  0.39874  0.42777  1.0000
  C   C144      1.0  0.44375  0.37577  0.42833  1.0000
  H   H53       1.0  0.39863  0.40945  0.48800  1.0000
  H   H54       1.0  0.45755  0.37040  0.48875  1.0000
