data_image0
_chemical_formula_structural       C2HC2H3N2C7H3NO2CHC7H3NO2CHC4NC4NH4N2C2H2C3H2CHC2H2C3H2CHC2HC2H3N2C7H3NO2CHC7H3NO2CHC4NC4NH4N2C2H2C3H2CHC2H2C3H2CHC2HC2H3N2C7H3NO2CHC7H3NO2CHC4NC4NH4N2C2H2C3H2CHC2H2C3H2CHC2HC2H3N2C7H3NO2CHC7H3NO2CHC4NC4NH4N2C2H2C3H2CHC2H2C3H2CH
_chemical_formula_sum              "C160 H104 N32 O16"
_cell_length_a       39.209
_cell_length_b       39.209
_cell_length_c       15.0543
_cell_angle_alpha    90
_cell_angle_beta     90
_cell_angle_gamma    90

_space_group_name_H-M_alt    "P 1"
_space_group_IT_number       1

loop_
  _space_group_symop_operation_xyz
  'x, y, z'

loop_
  _atom_site_type_symbol
  _atom_site_label
  _atom_site_symmetry_multiplicity
  _atom_site_fract_x
  _atom_site_fract_y
  _atom_site_fract_z
  _atom_site_occupancy
  C   C1        1.0  0.49549  0.44729  0.29914  1.0000
  C   C2        1.0  0.47021  0.42175  0.29324  1.0000
  H   H1        1.0  0.02002  0.44074  0.28437  1.0000
  C   C3        1.0  0.03089  0.06793  0.29790  1.0000
  C   C4        1.0  0.00579  0.04212  0.29660  1.0000
  H   H2        1.0  0.48228  0.04819  0.27237  1.0000
  H   H3        1.0  0.08423  0.10853  0.31335  1.0000
  H   H4        1.0  0.41601  0.38175  0.29250  1.0000
  N   N1        1.0  0.02358  0.10034  0.27326  1.0000
  N   N2        1.0  0.47825  0.38911  0.27271  1.0000
  C   C5        1.0  0.49649  0.15295  0.23150  1.0000
  C   C6        1.0  0.46637  0.17289  0.22586  1.0000
  C   C7        1.0  0.46901  0.20881  0.21799  1.0000
  C   C8        1.0  0.50072  0.22644  0.21406  1.0000
  C   C9        1.0  0.50303  0.26295  0.21621  1.0000
  C   C10       1.0  0.97413  0.28429  0.20290  1.0000
  C   C11       1.0  0.97532  0.31974  0.21602  1.0000
  H   H5        1.0  0.95125  0.27467  0.18279  1.0000
  H   H6        1.0  0.95336  0.33343  0.20712  1.0000
  H   H7        1.0  0.44663  0.22193  0.22125  1.0000
  N   N3        1.0  0.43394  0.15709  0.23325  1.0000
  O   O1        1.0  0.91796  0.16714  0.30074  1.0000
  O   O2        1.0  0.41594  0.16238  0.16557  1.0000
  C   C12       1.0  0.99526  0.11758  0.24888  1.0000
  H   H8        1.0  0.97228  0.10542  0.25274  1.0000
  C   C13       1.0  0.34070  0.50085  0.37537  1.0000
  C   C14       1.0  0.32046  0.53082  0.37157  1.0000
  C   C15       1.0  0.28489  0.52857  0.38712  1.0000
  C   C16       1.0  0.26791  0.49749  0.40784  1.0000
  C   C17       1.0  0.23154  0.49530  0.41621  1.0000
  C   C18       1.0  0.21070  0.02477  0.42573  1.0000
  C   C19       1.0  0.17495  0.02325  0.42156  1.0000
  H   H9        1.0  0.22098  0.04833  0.43591  1.0000
  H   H10       1.0  0.16157  0.04559  0.42596  1.0000
  H   H11       1.0  0.27135  0.55042  0.37721  1.0000
  N   N4        1.0  0.33551  0.56242  0.34761  1.0000
  O   O3        1.0  0.33167  0.08446  0.40736  1.0000
  O   O4        1.0  0.32348  0.57381  0.27611  1.0000
  C   C20       1.0  0.37595  0.00150  0.35630  1.0000
  H   H12       1.0  0.38790  0.02426  0.34540  1.0000
  C   C21       1.0  0.48743  0.48196  0.31522  1.0000
  C   C22       1.0  0.43538  0.43010  0.30782  1.0000
  C   C23       1.0  0.42675  0.46459  0.32609  1.0000
  C   C24       1.0  0.45248  0.48977  0.32766  1.0000
  N   N5        1.0  0.41069  0.40552  0.30432  1.0000
  C   C25       1.0  0.01309  0.00777  0.31867  1.0000
  C   C26       1.0  0.04713  0.00043  0.34373  1.0000
  C   C27       1.0  0.07254  0.02588  0.34872  1.0000
  C   C28       1.0  0.06467  0.06010  0.32527  1.0000
  N   N6        1.0  0.08911  0.08496  0.32856  1.0000
  H   H13       1.0  0.11235  0.08022  0.34705  1.0000
  H   H14       1.0  0.38673  0.41072  0.31350  1.0000
  H   H15       1.0  0.44571  0.01393  0.34553  1.0000
  H   H16       1.0  0.05325  0.47644  0.36453  1.0000
  N   N7        1.0  0.10486  0.01844  0.37373  1.0000
  N   N8        1.0  0.39376  0.47242  0.34344  1.0000
  C   C29       1.0  0.53011  0.20529  0.21270  1.0000
  C   C30       1.0  0.52818  0.16976  0.22215  1.0000
  H   H17       1.0  0.55396  0.21517  0.20447  1.0000
  H   H18       1.0  0.55057  0.15634  0.22247  1.0000
  C   C31       1.0  0.50595  0.33611  0.24084  1.0000
  C   C32       1.0  0.53558  0.31592  0.24774  1.0000
  C   C33       1.0  0.53398  0.28033  0.23673  1.0000
  H   H19       1.0  0.55828  0.32666  0.26655  1.0000
  H   H20       1.0  0.55590  0.26742  0.25060  1.0000
  C   C34       1.0  0.50728  0.37118  0.26060  1.0000
  H   H21       1.0  0.53020  0.38237  0.27478  1.0000
  C   C35       1.0  0.28931  0.46842  0.41507  1.0000
  C   C36       1.0  0.32448  0.46989  0.39845  1.0000
  H   H22       1.0  0.27995  0.44531  0.43428  1.0000
  H   H23       1.0  0.33819  0.44779  0.40472  1.0000
  C   C37       1.0  0.15791  0.49184  0.40979  1.0000
  C   C38       1.0  0.17783  0.46191  0.40861  1.0000
  C   C39       1.0  0.21366  0.46372  0.41075  1.0000
  H   H24       1.0  0.16659  0.43859  0.39933  1.0000
  H   H25       1.0  0.22617  0.44123  0.40122  1.0000
  C   C40       1.0  0.12251  0.48999  0.39463  1.0000
  H   H26       1.0  0.11108  0.46670  0.38756  1.0000
  C   C41       1.0  0.49549  0.94730  0.29914  1.0000
  C   C42       1.0  0.47021  0.92175  0.29324  1.0000
  H   H27       1.0  0.02002  0.94074  0.28437  1.0000
  C   C43       1.0  0.03089  0.56793  0.29790  1.0000
  C   C44       1.0  0.00579  0.54212  0.29660  1.0000
  H   H28       1.0  0.48228  0.54819  0.27237  1.0000
  H   H29       1.0  0.08423  0.60853  0.31335  1.0000
  H   H30       1.0  0.41601  0.88175  0.29250  1.0000
  N   N9        1.0  0.02358  0.60034  0.27326  1.0000
  N   N10       1.0  0.47825  0.88911  0.27271  1.0000
  C   C45       1.0  0.49649  0.65295  0.23150  1.0000
  C   C46       1.0  0.46637  0.67289  0.22586  1.0000
  C   C47       1.0  0.46901  0.70881  0.21799  1.0000
  C   C48       1.0  0.50072  0.72644  0.21406  1.0000
  C   C49       1.0  0.50303  0.76296  0.21621  1.0000
  C   C50       1.0  0.97413  0.78429  0.20290  1.0000
  C   C51       1.0  0.97532  0.81974  0.21602  1.0000
  H   H31       1.0  0.95125  0.77467  0.18279  1.0000
  H   H32       1.0  0.95336  0.83343  0.20712  1.0000
  H   H33       1.0  0.44663  0.72193  0.22125  1.0000
  N   N11       1.0  0.43394  0.65709  0.23325  1.0000
  O   O5        1.0  0.91796  0.66714  0.30074  1.0000
  O   O6        1.0  0.41594  0.66238  0.16557  1.0000
  C   C52       1.0  0.99526  0.61758  0.24888  1.0000
  H   H34       1.0  0.97228  0.60542  0.25274  1.0000
  C   C53       1.0  0.34070  0.00085  0.37537  1.0000
  C   C54       1.0  0.32046  0.03082  0.37157  1.0000
  C   C55       1.0  0.28489  0.02857  0.38712  1.0000
  C   C56       1.0  0.26791  0.99749  0.40784  1.0000
  C   C57       1.0  0.23154  0.99530  0.41621  1.0000
  C   C58       1.0  0.21070  0.52477  0.42573  1.0000
  C   C59       1.0  0.17495  0.52325  0.42156  1.0000
  H   H35       1.0  0.22098  0.54833  0.43591  1.0000
  H   H36       1.0  0.16157  0.54559  0.42596  1.0000
  H   H37       1.0  0.27135  0.05042  0.37721  1.0000
  N   N12       1.0  0.33551  0.06242  0.34761  1.0000
  O   O7        1.0  0.33167  0.58447  0.40736  1.0000
  O   O8        1.0  0.32348  0.07381  0.27611  1.0000
  C   C60       1.0  0.37595  0.50150  0.35630  1.0000
  H   H38       1.0  0.38790  0.52426  0.34540  1.0000
  C   C61       1.0  0.48743  0.98197  0.31522  1.0000
  C   C62       1.0  0.43538  0.93010  0.30782  1.0000
  C   C63       1.0  0.42675  0.96459  0.32609  1.0000
  C   C64       1.0  0.45248  0.98977  0.32766  1.0000
  N   N13       1.0  0.41069  0.90552  0.30432  1.0000
  C   C65       1.0  0.01309  0.50777  0.31867  1.0000
  C   C66       1.0  0.04713  0.50043  0.34373  1.0000
  C   C67       1.0  0.07254  0.52588  0.34872  1.0000
  C   C68       1.0  0.06467  0.56010  0.32527  1.0000
  N   N14       1.0  0.08911  0.58496  0.32856  1.0000
  H   H39       1.0  0.11235  0.58022  0.34705  1.0000
  H   H40       1.0  0.38673  0.91072  0.31350  1.0000
  H   H41       1.0  0.44571  0.51392  0.34553  1.0000
  H   H42       1.0  0.05325  0.97644  0.36453  1.0000
  N   N15       1.0  0.10486  0.51844  0.37373  1.0000
  N   N16       1.0  0.39376  0.97242  0.34344  1.0000
  C   C69       1.0  0.53011  0.70529  0.21270  1.0000
  C   C70       1.0  0.52818  0.66976  0.22215  1.0000
  H   H43       1.0  0.55396  0.71517  0.20447  1.0000
  H   H44       1.0  0.55057  0.65634  0.22247  1.0000
  C   C71       1.0  0.50595  0.83611  0.24084  1.0000
  C   C72       1.0  0.53558  0.81592  0.24774  1.0000
  C   C73       1.0  0.53398  0.78033  0.23673  1.0000
  H   H45       1.0  0.55828  0.82666  0.26655  1.0000
  H   H46       1.0  0.55590  0.76742  0.25060  1.0000
  C   C74       1.0  0.50728  0.87119  0.26060  1.0000
  H   H47       1.0  0.53020  0.88237  0.27478  1.0000
  C   C75       1.0  0.28931  0.96842  0.41507  1.0000
  C   C76       1.0  0.32448  0.96989  0.39845  1.0000
  H   H48       1.0  0.27995  0.94530  0.43428  1.0000
  H   H49       1.0  0.33819  0.94779  0.40472  1.0000
  C   C77       1.0  0.15791  0.99184  0.40979  1.0000
  C   C78       1.0  0.17783  0.96192  0.40861  1.0000
  C   C79       1.0  0.21366  0.96372  0.41075  1.0000
  H   H50       1.0  0.16659  0.93859  0.39933  1.0000
  H   H51       1.0  0.22617  0.94123  0.40122  1.0000
  C   C80       1.0  0.12251  0.98999  0.39463  1.0000
  H   H52       1.0  0.11108  0.96671  0.38756  1.0000
  C   C81       1.0  0.99549  0.44729  0.29914  1.0000
  C   C82       1.0  0.97021  0.42175  0.29324  1.0000
  H   H53       1.0  0.52002  0.44074  0.28437  1.0000
  C   C83       1.0  0.53089  0.06793  0.29790  1.0000
  C   C84       1.0  0.50579  0.04212  0.29660  1.0000
  H   H54       1.0  0.98229  0.04819  0.27237  1.0000
  H   H55       1.0  0.58423  0.10853  0.31335  1.0000
  H   H56       1.0  0.91602  0.38175  0.29250  1.0000
  N   N17       1.0  0.52359  0.10034  0.27326  1.0000
  N   N18       1.0  0.97825  0.38911  0.27271  1.0000
  C   C85       1.0  0.99649  0.15295  0.23150  1.0000
  C   C86       1.0  0.96637  0.17289  0.22586  1.0000
  C   C87       1.0  0.96901  0.20881  0.21799  1.0000
  C   C88       1.0  0.00072  0.22644  0.21406  1.0000
  C   C89       1.0  0.00303  0.26295  0.21621  1.0000
  C   C90       1.0  0.47413  0.28429  0.20290  1.0000
  C   C91       1.0  0.47532  0.31974  0.21602  1.0000
  H   H57       1.0  0.45125  0.27467  0.18279  1.0000
  H   H58       1.0  0.45336  0.33343  0.20712  1.0000
  H   H59       1.0  0.94663  0.22193  0.22125  1.0000
  N   N19       1.0  0.93394  0.15709  0.23325  1.0000
  O   O9        1.0  0.41796  0.16714  0.30074  1.0000
  O   O10       1.0  0.91594  0.16238  0.16557  1.0000
  C   C92       1.0  0.49526  0.11758  0.24888  1.0000
  H   H60       1.0  0.47228  0.10542  0.25274  1.0000
  C   C93       1.0  0.84070  0.50085  0.37537  1.0000
  C   C94       1.0  0.82047  0.53082  0.37157  1.0000
  C   C95       1.0  0.78489  0.52857  0.38712  1.0000
  C   C96       1.0  0.76790  0.49749  0.40784  1.0000
  C   C97       1.0  0.73154  0.49530  0.41621  1.0000
  C   C98       1.0  0.71070  0.02477  0.42573  1.0000
  C   C99       1.0  0.67495  0.02325  0.42156  1.0000
  H   H61       1.0  0.72098  0.04833  0.43591  1.0000
  H   H62       1.0  0.66157  0.04559  0.42596  1.0000
  H   H63       1.0  0.77135  0.55042  0.37721  1.0000
  N   N20       1.0  0.83551  0.56242  0.34761  1.0000
  O   O11       1.0  0.83167  0.08446  0.40736  1.0000
  O   O12       1.0  0.82348  0.57381  0.27611  1.0000
  C   C100      1.0  0.87595  0.00150  0.35630  1.0000
  H   H64       1.0  0.88791  0.02426  0.34540  1.0000
  C   C101      1.0  0.98743  0.48196  0.31522  1.0000
  C   C102      1.0  0.93538  0.43010  0.30782  1.0000
  C   C103      1.0  0.92675  0.46459  0.32609  1.0000
  C   C104      1.0  0.95248  0.48977  0.32766  1.0000
  N   N21       1.0  0.91069  0.40552  0.30432  1.0000
  C   C105      1.0  0.51309  0.00777  0.31867  1.0000
  C   C106      1.0  0.54713  0.00043  0.34373  1.0000
  C   C107      1.0  0.57254  0.02588  0.34872  1.0000
  C   C108      1.0  0.56468  0.06010  0.32527  1.0000
  N   N22       1.0  0.58911  0.08496  0.32856  1.0000
  H   H65       1.0  0.61236  0.08022  0.34705  1.0000
  H   H66       1.0  0.88673  0.41072  0.31350  1.0000
  H   H67       1.0  0.94571  0.01393  0.34553  1.0000
  H   H68       1.0  0.55324  0.47644  0.36453  1.0000
  N   N23       1.0  0.60486  0.01844  0.37373  1.0000
  N   N24       1.0  0.89377  0.47242  0.34344  1.0000
  C   C109      1.0  0.03011  0.20529  0.21270  1.0000
  C   C110      1.0  0.02818  0.16976  0.22215  1.0000
  H   H69       1.0  0.05396  0.21517  0.20447  1.0000
  H   H70       1.0  0.05057  0.15634  0.22247  1.0000
  C   C111      1.0  0.00595  0.33611  0.24084  1.0000
  C   C112      1.0  0.03557  0.31592  0.24774  1.0000
  C   C113      1.0  0.03398  0.28033  0.23673  1.0000
  H   H71       1.0  0.05828  0.32666  0.26655  1.0000
  H   H72       1.0  0.05590  0.26742  0.25060  1.0000
  C   C114      1.0  0.00727  0.37118  0.26060  1.0000
  H   H73       1.0  0.03020  0.38237  0.27478  1.0000
  C   C115      1.0  0.78931  0.46842  0.41507  1.0000
  C   C116      1.0  0.82448  0.46989  0.39845  1.0000
  H   H74       1.0  0.77995  0.44531  0.43428  1.0000
  H   H75       1.0  0.83818  0.44779  0.40472  1.0000
  C   C117      1.0  0.65791  0.49184  0.40979  1.0000
  C   C118      1.0  0.67784  0.46191  0.40861  1.0000
  C   C119      1.0  0.71366  0.46372  0.41075  1.0000
  H   H76       1.0  0.66660  0.43859  0.39933  1.0000
  H   H77       1.0  0.72617  0.44123  0.40122  1.0000
  C   C120      1.0  0.62251  0.48999  0.39463  1.0000
  H   H78       1.0  0.61108  0.46670  0.38756  1.0000
  C   C121      1.0  0.99549  0.94730  0.29914  1.0000
  C   C122      1.0  0.97021  0.92175  0.29324  1.0000
  H   H79       1.0  0.52002  0.94074  0.28437  1.0000
  C   C123      1.0  0.53089  0.56793  0.29790  1.0000
  C   C124      1.0  0.50579  0.54212  0.29660  1.0000
  H   H80       1.0  0.98229  0.54819  0.27237  1.0000
  H   H81       1.0  0.58423  0.60853  0.31335  1.0000
  H   H82       1.0  0.91602  0.88175  0.29250  1.0000
  N   N25       1.0  0.52359  0.60034  0.27326  1.0000
  N   N26       1.0  0.97825  0.88911  0.27271  1.0000
  C   C125      1.0  0.99649  0.65295  0.23150  1.0000
  C   C126      1.0  0.96637  0.67289  0.22586  1.0000
  C   C127      1.0  0.96901  0.70881  0.21799  1.0000
  C   C128      1.0  0.00072  0.72644  0.21406  1.0000
  C   C129      1.0  0.00303  0.76296  0.21621  1.0000
  C   C130      1.0  0.47413  0.78429  0.20290  1.0000
  C   C131      1.0  0.47532  0.81974  0.21602  1.0000
  H   H83       1.0  0.45125  0.77467  0.18279  1.0000
  H   H84       1.0  0.45336  0.83343  0.20712  1.0000
  H   H85       1.0  0.94663  0.72193  0.22125  1.0000
  N   N27       1.0  0.93394  0.65709  0.23325  1.0000
  O   O13       1.0  0.41796  0.66714  0.30074  1.0000
  O   O14       1.0  0.91594  0.66238  0.16557  1.0000
  C   C132      1.0  0.49526  0.61758  0.24888  1.0000
  H   H86       1.0  0.47228  0.60542  0.25274  1.0000
  C   C133      1.0  0.84070  0.00085  0.37537  1.0000
  C   C134      1.0  0.82047  0.03082  0.37157  1.0000
  C   C135      1.0  0.78489  0.02857  0.38712  1.0000
  C   C136      1.0  0.76790  0.99749  0.40784  1.0000
  C   C137      1.0  0.73154  0.99530  0.41621  1.0000
  C   C138      1.0  0.71070  0.52477  0.42573  1.0000
  C   C139      1.0  0.67495  0.52325  0.42156  1.0000
  H   H87       1.0  0.72098  0.54833  0.43591  1.0000
  H   H88       1.0  0.66157  0.54559  0.42596  1.0000
  H   H89       1.0  0.77135  0.05042  0.37721  1.0000
  N   N28       1.0  0.83551  0.06242  0.34761  1.0000
  O   O15       1.0  0.83167  0.58447  0.40736  1.0000
  O   O16       1.0  0.82348  0.07381  0.27611  1.0000
  C   C140      1.0  0.87595  0.50150  0.35630  1.0000
  H   H90       1.0  0.88791  0.52426  0.34540  1.0000
  C   C141      1.0  0.98743  0.98197  0.31522  1.0000
  C   C142      1.0  0.93538  0.93010  0.30782  1.0000
  C   C143      1.0  0.92675  0.96459  0.32609  1.0000
  C   C144      1.0  0.95248  0.98977  0.32766  1.0000
  N   N29       1.0  0.91069  0.90552  0.30432  1.0000
  C   C145      1.0  0.51309  0.50777  0.31867  1.0000
  C   C146      1.0  0.54713  0.50043  0.34373  1.0000
  C   C147      1.0  0.57254  0.52588  0.34872  1.0000
  C   C148      1.0  0.56468  0.56010  0.32527  1.0000
  N   N30       1.0  0.58911  0.58496  0.32856  1.0000
  H   H91       1.0  0.61236  0.58022  0.34705  1.0000
  H   H92       1.0  0.88673  0.91072  0.31350  1.0000
  H   H93       1.0  0.94571  0.51392  0.34553  1.0000
  H   H94       1.0  0.55324  0.97644  0.36453  1.0000
  N   N31       1.0  0.60486  0.51844  0.37373  1.0000
  N   N32       1.0  0.89377  0.97242  0.34344  1.0000
  C   C149      1.0  0.03011  0.70529  0.21270  1.0000
  C   C150      1.0  0.02818  0.66976  0.22215  1.0000
  H   H95       1.0  0.05396  0.71517  0.20447  1.0000
  H   H96       1.0  0.05057  0.65634  0.22247  1.0000
  C   C151      1.0  0.00595  0.83611  0.24084  1.0000
  C   C152      1.0  0.03557  0.81592  0.24774  1.0000
  C   C153      1.0  0.03398  0.78033  0.23673  1.0000
  H   H97       1.0  0.05828  0.82666  0.26655  1.0000
  H   H98       1.0  0.05590  0.76742  0.25060  1.0000
  C   C154      1.0  0.00727  0.87119  0.26060  1.0000
  H   H99       1.0  0.03020  0.88237  0.27478  1.0000
  C   C155      1.0  0.78931  0.96842  0.41507  1.0000
  C   C156      1.0  0.82448  0.96989  0.39845  1.0000
  H   H100      1.0  0.77995  0.94530  0.43428  1.0000
  H   H101      1.0  0.83818  0.94779  0.40472  1.0000
  C   C157      1.0  0.65791  0.99184  0.40979  1.0000
  C   C158      1.0  0.67784  0.96192  0.40861  1.0000
  C   C159      1.0  0.71366  0.96372  0.41075  1.0000
  H   H102      1.0  0.66660  0.93859  0.39933  1.0000
  H   H103      1.0  0.72617  0.94123  0.40122  1.0000
  C   C160      1.0  0.62251  0.98999  0.39463  1.0000
  H   H104      1.0  0.61108  0.96671  0.38756  1.0000
