data_image0
_chemical_formula_structural       C16H20C16H20C16H20CN3HCN3HCN3HCN3HCN3HCN3HC3NC3NC5NC5NC36H26C4H4C3NC3NC5NC5NC36H26C4H4C3NC3NC5NC5NC36H26C4H4C3NH3NHC3NH3NHC3NH3NHC3NH3NHC3NH3NHC3NH3NH
_chemical_formula_sum              "C240 H180 N42"
_cell_length_a       66.1803
_cell_length_b       66.1804
_cell_length_c       15.014
_cell_angle_alpha    89.9578
_cell_angle_beta     90.0422
_cell_angle_gamma    120

_space_group_name_H-M_alt    "P 1"
_space_group_IT_number       1

loop_
  _space_group_symop_operation_xyz
  'x, y, z'

loop_
  _atom_site_type_symbol
  _atom_site_label
  _atom_site_symmetry_multiplicity
  _atom_site_fract_x
  _atom_site_fract_y
  _atom_site_fract_z
  _atom_site_occupancy
  C   C1        1.0  0.10038  0.53727  0.24508  1.0000
  C   C2        1.0  0.11861  0.53218  0.24265  1.0000
  C   C3        1.0  0.18701  0.53659  0.25418  1.0000
  C   C4        1.0  0.16713  0.53908  0.25442  1.0000
  C   C5        1.0  0.09986  0.65683  0.26412  1.0000
  C   C6        1.0  0.11545  0.68100  0.26944  1.0000
  C   C7        1.0  0.13587  0.73318  0.28838  1.0000
  C   C8        1.0  0.15163  0.75732  0.29349  1.0000
  C   C9        1.0  0.94050  0.58842  0.24327  1.0000
  C   C10       1.0  0.95857  0.58311  0.24546  1.0000
  C   C11       1.0  0.89232  0.58238  0.25643  1.0000
  C   C12       1.0  0.87275  0.58539  0.25629  1.0000
  C   C13       1.0  0.95907  0.46379  0.26347  1.0000
  C   C14       1.0  0.94328  0.43966  0.26866  1.0000
  C   C15       1.0  0.90586  0.36331  0.29198  1.0000
  C   C16       1.0  0.92203  0.38736  0.28707  1.0000
  H   H1        1.0  0.90523  0.35275  0.24101  1.0000
  H   H2        1.0  0.93293  0.39344  0.23320  1.0000
  H   H3        1.0  0.93426  0.43124  0.21243  1.0000
  H   H4        1.0  0.96144  0.47216  0.20374  1.0000
  H   H5        1.0  0.96602  0.58224  0.18689  1.0000
  H   H6        1.0  0.93544  0.59150  0.18272  1.0000
  H   H7        1.0  0.09746  0.64854  0.20422  1.0000
  H   H8        1.0  0.12432  0.68954  0.21314  1.0000
  H   H9        1.0  0.15194  0.76782  0.24281  1.0000
  H   H10       1.0  0.12492  0.72696  0.23465  1.0000
  H   H11       1.0  0.16630  0.55018  0.20900  1.0000
  H   H12       1.0  0.19981  0.54572  0.20823  1.0000
  H   H13       1.0  0.12358  0.52905  0.18207  1.0000
  H   H14       1.0  0.09274  0.53793  0.18663  1.0000
  H   H15       1.0  0.89277  0.57101  0.21142  1.0000
  H   H16       1.0  0.85976  0.57631  0.21090  1.0000
  H   H17       1.0  0.18163  0.80169  0.31732  1.0000
  H   H18       1.0  0.22364  0.53180  0.26988  1.0000
  H   H19       1.0  0.83677  0.59125  0.27198  1.0000
  H   H20       1.0  0.87508  0.31913  0.31533  1.0000
  C   C17       1.0  0.55462  0.65810  0.24560  1.0000
  C   C18       1.0  0.55971  0.68142  0.24315  1.0000
  C   C19       1.0  0.55532  0.74543  0.25465  1.0000
  C   C20       1.0  0.55280  0.72304  0.25497  1.0000
  C   C21       1.0  0.43505  0.53798  0.26473  1.0000
  C   C22       1.0  0.41088  0.52941  0.27006  1.0000
  C   C23       1.0  0.35870  0.49766  0.28909  1.0000
  C   C24       1.0  0.33455  0.48927  0.29421  1.0000
  C   C25       1.0  0.50345  0.44707  0.24379  1.0000
  C   C26       1.0  0.50877  0.47046  0.24600  1.0000
  C   C27       1.0  0.50947  0.40491  0.25686  1.0000
  C   C28       1.0  0.50647  0.38233  0.25677  1.0000
  C   C29       1.0  0.62811  0.59030  0.26401  1.0000
  C   C30       1.0  0.65224  0.59863  0.26922  1.0000
  C   C31       1.0  0.72859  0.63751  0.29267  1.0000
  C   C32       1.0  0.70453  0.62963  0.28775  1.0000
  H   H21       1.0  0.73915  0.64746  0.24174  1.0000
  H   H22       1.0  0.69846  0.63450  0.23391  1.0000
  H   H23       1.0  0.66067  0.59807  0.21297  1.0000
  H   H24       1.0  0.61975  0.58435  0.20425  1.0000
  H   H25       1.0  0.50962  0.47879  0.18743  1.0000
  H   H26       1.0  0.50036  0.43895  0.18325  1.0000
  H   H27       1.0  0.44333  0.54387  0.20481  1.0000
  H   H28       1.0  0.40233  0.52974  0.21374  1.0000
  H   H29       1.0  0.32406  0.47909  0.24356  1.0000
  H   H30       1.0  0.36491  0.49292  0.23540  1.0000
  H   H31       1.0  0.54172  0.71114  0.20947  1.0000
  H   H32       1.0  0.54618  0.74910  0.20874  1.0000
  H   H33       1.0  0.56286  0.68955  0.18258  1.0000
  H   H34       1.0  0.55397  0.64983  0.18715  1.0000
  H   H35       1.0  0.52085  0.41675  0.21190  1.0000
  H   H36       1.0  0.51556  0.37845  0.21140  1.0000
  H   H37       1.0  0.29019  0.47490  0.31802  1.0000
  H   H38       1.0  0.56011  0.78684  0.27043  1.0000
  H   H39       1.0  0.50062  0.34050  0.27248  1.0000
  H   H40       1.0  0.77276  0.65087  0.31602  1.0000
  C   C33       1.0  0.43381  0.99152  0.24608  1.0000
  C   C34       1.0  0.41049  0.97329  0.24357  1.0000
  C   C35       1.0  0.34648  0.90489  0.25496  1.0000
  C   C36       1.0  0.36886  0.92476  0.25530  1.0000
  C   C37       1.0  0.55388  0.99204  0.26537  1.0000
  C   C38       1.0  0.56246  0.97645  0.27067  1.0000
  C   C39       1.0  0.59422  0.95602  0.28964  1.0000
  C   C40       1.0  0.60262  0.94027  0.29473  1.0000
  C   C41       1.0  0.64479  0.15138  0.24421  1.0000
  C   C42       1.0  0.62139  0.13331  0.24649  1.0000
  C   C43       1.0  0.68694  0.19955  0.25729  1.0000
  C   C44       1.0  0.70952  0.21912  0.25711  1.0000
  C   C45       1.0  0.50160  0.13281  0.26457  1.0000
  C   C46       1.0  0.49326  0.14860  0.26978  1.0000
  C   C47       1.0  0.45435  0.18602  0.29323  1.0000
  C   C48       1.0  0.46223  0.16986  0.28831  1.0000
  H   H41       1.0  0.44438  0.18664  0.24231  1.0000
  H   H42       1.0  0.45738  0.15894  0.23446  1.0000
  H   H43       1.0  0.49382  0.15761  0.21353  1.0000
  H   H44       1.0  0.50755  0.13042  0.20481  1.0000
  H   H45       1.0  0.61304  0.12587  0.18794  1.0000
  H   H46       1.0  0.65288  0.15644  0.18362  1.0000
  H   H47       1.0  0.54798  0.99445  0.20546  1.0000
  H   H48       1.0  0.56212  0.96758  0.21435  1.0000
  H   H49       1.0  0.61280  0.93998  0.24407  1.0000
  H   H50       1.0  0.59896  0.96700  0.23595  1.0000
  H   H51       1.0  0.38079  0.92558  0.20995  1.0000
  H   H52       1.0  0.34282  0.89208  0.20907  1.0000
  H   H53       1.0  0.40238  0.96832  0.18296  1.0000
  H   H54       1.0  0.44210  0.99915  0.18765  1.0000
  H   H55       1.0  0.67507  0.19912  0.21247  1.0000
  H   H56       1.0  0.71337  0.23213  0.21186  1.0000
  H   H57       1.0  0.61700  0.91027  0.31848  1.0000
  H   H58       1.0  0.30506  0.86828  0.27051  1.0000
  H   H59       1.0  0.75136  0.25510  0.27271  1.0000
  H   H60       1.0  0.44095  0.21680  0.31659  1.0000
  C   C49       1.0  0.22831  0.49671  0.33495  1.0000
  N   N1        1.0  0.26544  0.50641  0.28445  1.0000
  N   N2        1.0  0.24498  0.50429  0.27079  1.0000
  N   N3        1.0  0.20755  0.49740  0.32220  1.0000
  H   H61       1.0  0.20018  0.48953  0.26263  1.0000
  C   C50       1.0  0.59518  0.82656  0.33557  1.0000
  N   N4        1.0  0.58551  0.85402  0.28497  1.0000
  N   N5        1.0  0.58762  0.83568  0.27137  1.0000
  N   N6        1.0  0.59450  0.80512  0.32279  1.0000
  H   H62       1.0  0.60238  0.80566  0.26322  1.0000
  C   C51       1.0  0.26531  0.86361  0.33519  1.0000
  N   N7        1.0  0.23787  0.82653  0.28422  1.0000
  N   N8        1.0  0.25621  0.84700  0.27081  1.0000
  N   N9        1.0  0.28677  0.88438  0.32263  1.0000
  H   H63       1.0  0.28627  0.89176  0.26306  1.0000
  C   C52       1.0  0.83323  0.62713  0.33472  1.0000
  N   N10       1.0  0.79636  0.61827  0.28366  1.0000
  N   N11       1.0  0.81661  0.61987  0.27039  1.0000
  N   N12       1.0  0.85368  0.62585  0.32243  1.0000
  H   H64       1.0  0.86111  0.63345  0.26257  1.0000
  C   C53       1.0  0.46475  0.30106  0.33534  1.0000
  N   N13       1.0  0.47355  0.27304  0.28424  1.0000
  N   N14       1.0  0.47199  0.29171  0.27098  1.0000
  N   N15       1.0  0.46603  0.32280  0.32303  1.0000
  H   H65       1.0  0.45841  0.32263  0.26319  1.0000
  C   C54       1.0  0.79083  0.25864  0.33501  1.0000
  N   N16       1.0  0.81882  0.29545  0.28347  1.0000
  N   N17       1.0  0.80014  0.27521  0.27047  1.0000
  N   N18       1.0  0.76908  0.23818  0.32289  1.0000
  H   H66       1.0  0.76921  0.23074  0.26302  1.0000
  C   C55       1.0  0.02062  0.49196  0.32460  1.0000
  C   C56       1.0  0.04465  0.50488  0.32299  1.0000
  C   C57       1.0  0.05129  0.52849  0.32744  1.0000
  N   N19       1.0  0.03110  0.52900  0.33124  1.0000
  C   C58       1.0  0.01201  0.50737  0.33040  1.0000
  C   C59       1.0  0.98797  0.50060  0.33474  1.0000
  C   C60       1.0  0.97921  0.51628  0.33547  1.0000
  N   N20       1.0  0.99156  0.53982  0.33144  1.0000
  C   C61       1.0  0.97758  0.54925  0.33295  1.0000
  C   C62       1.0  0.95475  0.53053  0.33763  1.0000
  C   C63       1.0  0.95576  0.51021  0.33990  1.0000
  C   C64       1.0  0.98436  0.57325  0.32955  1.0000
  C   C65       1.0  0.00779  0.59201  0.32771  1.0000
  N   N21       1.0  0.02799  0.59149  0.33151  1.0000
  C   C66       1.0  0.04708  0.61312  0.33072  1.0000
  C   C67       1.0  0.03847  0.62854  0.32492  1.0000
  C   C68       1.0  0.01443  0.61562  0.32321  1.0000
  C   C69       1.0  0.07112  0.61989  0.33511  1.0000
  C   C70       1.0  0.07988  0.60421  0.33569  1.0000
  N   N22       1.0  0.06753  0.58068  0.33158  1.0000
  C   C71       1.0  0.08151  0.57125  0.33290  1.0000
  C   C72       1.0  0.10435  0.58997  0.33743  1.0000
  C   C73       1.0  0.10333  0.61029  0.33992  1.0000
  C   C74       1.0  0.07473  0.54725  0.32934  1.0000
  C   C75       1.0  0.09284  0.54161  0.32708  1.0000
  C   C76       1.0  0.12987  0.53139  0.32178  1.0000
  C   C77       1.0  0.12194  0.53549  0.40376  1.0000
  C   C78       1.0  0.10365  0.54050  0.40653  1.0000
  C   C79       1.0  0.14932  0.52762  0.31882  1.0000
  C   C80       1.0  0.15201  0.51327  0.38221  1.0000
  C   C81       1.0  0.17200  0.51091  0.38247  1.0000
  C   C82       1.0  0.18981  0.52261  0.31864  1.0000
  C   C83       1.0  0.08760  0.64418  0.34042  1.0000
  C   C84       1.0  0.11912  0.69323  0.35075  1.0000
  C   C85       1.0  0.10669  0.68031  0.42679  1.0000
  C   C86       1.0  0.09119  0.65613  0.42189  1.0000
  C   C87       1.0  0.13489  0.71782  0.35620  1.0000
  C   C88       1.0  0.16692  0.76695  0.36683  1.0000
  C   C89       1.0  0.16567  0.75176  0.43553  1.0000
  C   C90       1.0  0.15008  0.72762  0.42999  1.0000
  C   C91       1.0  0.96626  0.57890  0.32743  1.0000
  C   C92       1.0  0.95576  0.58035  0.40709  1.0000
  C   C93       1.0  0.93762  0.58559  0.40456  1.0000
  C   C94       1.0  0.92956  0.58961  0.32264  1.0000
  C   C95       1.0  0.91037  0.59378  0.32000  1.0000
  C   C96       1.0  0.87050  0.59982  0.32010  1.0000
  C   C97       1.0  0.88854  0.61143  0.38320  1.0000
  C   C98       1.0  0.90823  0.60857  0.38279  1.0000
  C   C99       1.0  0.97147  0.47631  0.33976  1.0000
  C   C100      1.0  0.96786  0.46425  0.42105  1.0000
  C   C101      1.0  0.93955  0.42733  0.34982  1.0000
  C   C102      1.0  0.95217  0.44012  0.42581  1.0000
  C   C103      1.0  0.92345  0.40282  0.35524  1.0000
  C   C104      1.0  0.90830  0.39319  0.42918  1.0000
  C   C105      1.0  0.89231  0.36914  0.43453  1.0000
  C   C106      1.0  0.89060  0.35387  0.36543  1.0000
  H   H67       1.0  0.88163  0.36290  0.48900  1.0000
  H   H68       1.0  0.90838  0.40367  0.47941  1.0000
  H   H69       1.0  0.95041  0.43189  0.48543  1.0000
  H   H70       1.0  0.97684  0.47291  0.47709  1.0000
  H   H71       1.0  0.01121  0.47414  0.32233  1.0000
  H   H72       1.0  0.05531  0.49784  0.32001  1.0000
  H   H73       1.0  0.03041  0.54308  0.33777  1.0000
  H   H74       1.0  0.02868  0.57741  0.33811  1.0000
  H   H75       1.0  0.94155  0.49381  0.34358  1.0000
  H   H76       1.0  0.93968  0.53125  0.33968  1.0000
  H   H77       1.0  0.96099  0.57726  0.46726  1.0000
  H   H78       1.0  0.92988  0.58573  0.46335  1.0000
  H   H79       1.0  0.00378  0.62266  0.32016  1.0000
  H   H80       1.0  0.04787  0.64635  0.32260  1.0000
  H   H81       1.0  0.11942  0.58926  0.33928  1.0000
  H   H82       1.0  0.11754  0.62669  0.34349  1.0000
  H   H83       1.0  0.08229  0.64738  0.47791  1.0000
  H   H84       1.0  0.10839  0.68845  0.48651  1.0000
  H   H85       1.0  0.15030  0.71722  0.47999  1.0000
  H   H86       1.0  0.17636  0.75814  0.48994  1.0000
  H   H87       1.0  0.09855  0.54373  0.46670  1.0000
  H   H88       1.0  0.12993  0.53567  0.46236  1.0000
  H   H89       1.0  0.17365  0.50088  0.43065  1.0000
  H   H90       1.0  0.13950  0.50453  0.42959  1.0000
  H   H91       1.0  0.92093  0.61729  0.42955  1.0000
  H   H92       1.0  0.88729  0.62179  0.43089  1.0000
  C   C107      1.0  0.18418  0.79234  0.37233  1.0000
  C   C108      1.0  0.21173  0.52167  0.32392  1.0000
  C   C109      1.0  0.87287  0.32862  0.37062  1.0000
  C   C110      1.0  0.84891  0.60138  0.32544  1.0000
  H   H93       1.0  0.18123  0.79920  0.43410  1.0000
  H   H94       1.0  0.22025  0.53001  0.38667  1.0000
  H   H95       1.0  0.84043  0.59338  0.38865  1.0000
  H   H96       1.0  0.87561  0.32150  0.43216  1.0000
  C   C111      1.0  0.59994  0.62364  0.32597  1.0000
  C   C112      1.0  0.58701  0.63476  0.32427  1.0000
  C   C113      1.0  0.56340  0.61778  0.32833  1.0000
  N   N23       1.0  0.56289  0.59707  0.33197  1.0000
  C   C114      1.0  0.58452  0.59961  0.33124  1.0000
  C   C115      1.0  0.59129  0.58233  0.33529  1.0000
  C   C116      1.0  0.57561  0.55790  0.33591  1.0000
  N   N24       1.0  0.55207  0.54671  0.33201  1.0000
  C   C117      1.0  0.54264  0.52329  0.33344  1.0000
  C   C118      1.0  0.56137  0.51918  0.33793  1.0000
  C   C119      1.0  0.58169  0.54052  0.34017  1.0000
  C   C120      1.0  0.51864  0.50607  0.33011  1.0000
  C   C121      1.0  0.49988  0.51075  0.32830  1.0000
  N   N25       1.0  0.50040  0.53147  0.33208  1.0000
  C   C122      1.0  0.47876  0.52892  0.33138  1.0000
  C   C123      1.0  0.46335  0.50489  0.32573  1.0000
  C   C124      1.0  0.47627  0.49378  0.32394  1.0000
  C   C125      1.0  0.47200  0.54619  0.33574  1.0000
  C   C126      1.0  0.48767  0.57062  0.33619  1.0000
  N   N26       1.0  0.51120  0.58181  0.33216  1.0000
  C   C127      1.0  0.52063  0.60522  0.33329  1.0000
  C   C128      1.0  0.50190  0.60933  0.33768  1.0000
  C   C129      1.0  0.48158  0.58799  0.34020  1.0000
  C   C130      1.0  0.54463  0.62245  0.32987  1.0000
  C   C131      1.0  0.55026  0.64620  0.32759  1.0000
  C   C132      1.0  0.56050  0.69345  0.32228  1.0000
  C   C133      1.0  0.55636  0.68138  0.40426  1.0000
  C   C134      1.0  0.55138  0.65809  0.40705  1.0000
  C   C135      1.0  0.56428  0.71667  0.31930  1.0000
  C   C136      1.0  0.57862  0.73368  0.38270  1.0000
  C   C137      1.0  0.58099  0.75603  0.38298  1.0000
  C   C138      1.0  0.56929  0.76217  0.31914  1.0000
  C   C139      1.0  0.44770  0.53837  0.34105  1.0000
  C   C140      1.0  0.39865  0.52085  0.35140  1.0000
  C   C141      1.0  0.41158  0.52134  0.42746  1.0000
  C   C142      1.0  0.43576  0.53002  0.42255  1.0000
  C   C143      1.0  0.37407  0.51204  0.35685  1.0000
  C   C144      1.0  0.32494  0.49493  0.36750  1.0000
  C   C145      1.0  0.34013  0.50887  0.43616  1.0000
  C   C146      1.0  0.36427  0.51743  0.43058  1.0000
  C   C147      1.0  0.51299  0.48233  0.32798  1.0000
  C   C148      1.0  0.51155  0.47034  0.40763  1.0000
  C   C149      1.0  0.50633  0.44698  0.40507  1.0000
  C   C150      1.0  0.50228  0.43492  0.32315  1.0000
  C   C151      1.0  0.49809  0.41155  0.32049  1.0000
  C   C152      1.0  0.49206  0.36565  0.32062  1.0000
  C   C153      1.0  0.48045  0.37206  0.38373  1.0000
  C   C154      1.0  0.48332  0.39461  0.38334  1.0000
  C   C155      1.0  0.61558  0.59012  0.34033  1.0000
  C   C156      1.0  0.62763  0.59850  0.42166  1.0000
  C   C157      1.0  0.66456  0.60716  0.35043  1.0000
  C   C158      1.0  0.65176  0.60693  0.42644  1.0000
  C   C159      1.0  0.68907  0.61556  0.35586  1.0000
  C   C160      1.0  0.69869  0.60998  0.42976  1.0000
  C   C161      1.0  0.72273  0.61803  0.43513  1.0000
  C   C162      1.0  0.73801  0.63162  0.36609  1.0000
  H   H97       1.0  0.72897  0.61356  0.48957  1.0000
  H   H98       1.0  0.68820  0.59955  0.47995  1.0000
  H   H99       1.0  0.65998  0.61335  0.48609  1.0000
  H   H100      1.0  0.61896  0.59877  0.47772  1.0000
  H   H101      1.0  0.61775  0.63206  0.32383  1.0000
  H   H102      1.0  0.59405  0.65246  0.32154  1.0000
  H   H103      1.0  0.54879  0.58228  0.33739  1.0000
  H   H104      1.0  0.51448  0.54623  0.33859  1.0000
  H   H105      1.0  0.59809  0.54271  0.34376  1.0000
  H   H106      1.0  0.56065  0.50340  0.33993  1.0000
  H   H107      1.0  0.51466  0.47866  0.46780  1.0000
  H   H108      1.0  0.50618  0.43907  0.46386  1.0000
  H   H109      1.0  0.46923  0.47608  0.32112  1.0000
  H   H110      1.0  0.44553  0.49648  0.32360  1.0000
  H   H111      1.0  0.50261  0.62511  0.33938  1.0000
  H   H112      1.0  0.46518  0.58580  0.34373  1.0000
  H   H113      1.0  0.44451  0.52987  0.47858  1.0000
  H   H114      1.0  0.40344  0.51490  0.48720  1.0000
  H   H115      1.0  0.37468  0.52804  0.48056  1.0000
  H   H116      1.0  0.33375  0.51318  0.49052  1.0000
  H   H117      1.0  0.54813  0.64973  0.46722  1.0000
  H   H118      1.0  0.55621  0.68918  0.46286  1.0000
  H   H119      1.0  0.59100  0.76769  0.43120  1.0000
  H   H120      1.0  0.58736  0.72990  0.43011  1.0000
  H   H121      1.0  0.47461  0.39858  0.43012  1.0000
  H   H122      1.0  0.47010  0.36043  0.43147  1.0000
  C   C163      1.0  0.29954  0.48681  0.37299  1.0000
  C   C164      1.0  0.57023  0.78504  0.32446  1.0000
  C   C165      1.0  0.76327  0.63914  0.37127  1.0000
  C   C166      1.0  0.49050  0.34249  0.32597  1.0000
  H   H123      1.0  0.29269  0.47700  0.43479  1.0000
  H   H124      1.0  0.56188  0.78518  0.38721  1.0000
  H   H125      1.0  0.49852  0.34200  0.38916  1.0000
  H   H126      1.0  0.77038  0.64896  0.43285  1.0000
  C   C167      1.0  0.46825  0.07128  0.32616  1.0000
  C   C168      1.0  0.45713  0.04724  0.32453  1.0000
  C   C169      1.0  0.47411  0.04059  0.32875  1.0000
  N   N27       1.0  0.49482  0.06079  0.33248  1.0000
  C   C170      1.0  0.49228  0.07988  0.33167  1.0000
  C   C171      1.0  0.50956  0.10393  0.33584  1.0000
  C   C172      1.0  0.53400  0.11268  0.33656  1.0000
  N   N28       1.0  0.54518  0.10032  0.33261  1.0000
  C   C173      1.0  0.56859  0.11430  0.33408  1.0000
  C   C174      1.0  0.57271  0.13714  0.33858  1.0000
  C   C175      1.0  0.55138  0.13613  0.34091  1.0000
  C   C176      1.0  0.58581  0.10752  0.33072  1.0000
  C   C177      1.0  0.58112  0.08408  0.32894  1.0000
  N   N29       1.0  0.56041  0.06389  0.33282  1.0000
  C   C178      1.0  0.56296  0.04480  0.33205  1.0000
  C   C179      1.0  0.58698  0.05341  0.32626  1.0000
  C   C180      1.0  0.59810  0.07744  0.32454  1.0000
  C   C181      1.0  0.54568  0.02076  0.33641  1.0000
  C   C182      1.0  0.52125  0.01200  0.33687  1.0000
  N   N30       1.0  0.51007  0.02436  0.33278  1.0000
  C   C183      1.0  0.48665  0.01037  0.33395  1.0000
  C   C184      1.0  0.48254  0.98753  0.33843  1.0000
  C   C185      1.0  0.50388  0.98855  0.34098  1.0000
  C   C186      1.0  0.46943  0.01716  0.33045  1.0000
  C   C187      1.0  0.44568  0.99905  0.32811  1.0000
  C   C188      1.0  0.39843  0.96203  0.32267  1.0000
  C   C189      1.0  0.41048  0.96995  0.40468  1.0000
  C   C190      1.0  0.43377  0.98825  0.40754  1.0000
  C   C191      1.0  0.37521  0.94259  0.31962  1.0000
  C   C192      1.0  0.35818  0.93990  0.38290  1.0000
  C   C193      1.0  0.33583  0.91992  0.38310  1.0000
  C   C194      1.0  0.32972  0.90210  0.31930  1.0000
  C   C195      1.0  0.55349  0.00428  0.34169  1.0000
  C   C196      1.0  0.57103  0.97275  0.35200  1.0000
  C   C197      1.0  0.57053  0.98516  0.42807  1.0000
  C   C198      1.0  0.56186  0.00067  0.42318  1.0000
  C   C199      1.0  0.57984  0.95698  0.35742  1.0000
  C   C200      1.0  0.59696  0.92496  0.36800  1.0000
  C   C201      1.0  0.58302  0.92619  0.43668  1.0000
  C   C202      1.0  0.57447  0.94178  0.43115  1.0000
  C   C203      1.0  0.60956  0.12562  0.32851  1.0000
  C   C204      1.0  0.62157  0.13611  0.40813  1.0000
  C   C205      1.0  0.64494  0.15424  0.40551  1.0000
  C   C206      1.0  0.65697  0.16230  0.32353  1.0000
  C   C207      1.0  0.68033  0.18148  0.32081  1.0000
  C   C208      1.0  0.72623  0.22136  0.32080  1.0000
  C   C209      1.0  0.71985  0.20330  0.38381  1.0000
  C   C210      1.0  0.69730  0.18362  0.38347  1.0000
  C   C211      1.0  0.50177  0.12043  0.34088  1.0000
  C   C212      1.0  0.49339  0.12406  0.42221  1.0000
  C   C213      1.0  0.48473  0.15236  0.35098  1.0000
  C   C214      1.0  0.48495  0.13976  0.42699  1.0000
  C   C215      1.0  0.47632  0.16846  0.35641  1.0000
  C   C216      1.0  0.48188  0.18363  0.43031  1.0000
  C   C217      1.0  0.47384  0.19962  0.43565  1.0000
  C   C218      1.0  0.46023  0.20131  0.36663  1.0000
  H   H127      1.0  0.47829  0.21030  0.49011  1.0000
  H   H128      1.0  0.49232  0.18355  0.48049  1.0000
  H   H129      1.0  0.47852  0.14153  0.48663  1.0000
  H   H130      1.0  0.49311  0.11510  0.47825  1.0000
  H   H131      1.0  0.45984  0.08068  0.32392  1.0000
  H   H132      1.0  0.43944  0.03658  0.32161  1.0000
  H   H133      1.0  0.50960  0.06148  0.33837  1.0000
  H   H134      1.0  0.54565  0.06320  0.33940  1.0000
  H   H135      1.0  0.54919  0.15034  0.34445  1.0000
  H   H136      1.0  0.58850  0.15221  0.34066  1.0000
  H   H137      1.0  0.61328  0.13088  0.46834  1.0000
  H   H138      1.0  0.65287  0.16198  0.46428  1.0000
  H   H139      1.0  0.61579  0.08810  0.32142  1.0000
  H   H140      1.0  0.59539  0.04400  0.32398  1.0000
  H   H141      1.0  0.46676  0.97246  0.34016  1.0000
  H   H142      1.0  0.50607  0.97434  0.34452  1.0000
  H   H143      1.0  0.56202  0.00955  0.47921  1.0000
  H   H144      1.0  0.57699  0.98345  0.48779  1.0000
  H   H145      1.0  0.56385  0.94154  0.48112  1.0000
  H   H146      1.0  0.57871  0.91548  0.49104  1.0000
  H   H147      1.0  0.44210  0.99334  0.46774  1.0000
  H   H148      1.0  0.40266  0.96197  0.46327  1.0000
  H   H149      1.0  0.32415  0.91827  0.43121  1.0000
  H   H150      1.0  0.36195  0.95241  0.43026  1.0000
  H   H151      1.0  0.69335  0.17091  0.43018  1.0000
  H   H152      1.0  0.73150  0.20456  0.43142  1.0000
  C   C219      1.0  0.60509  0.90770  0.37346  1.0000
  C   C220      1.0  0.30684  0.88018  0.32452  1.0000
  C   C221      1.0  0.45269  0.21903  0.37183  1.0000
  C   C222      1.0  0.74939  0.24295  0.32610  1.0000
  H   H153      1.0  0.61490  0.91063  0.43526  1.0000
  H   H154      1.0  0.30666  0.87166  0.38730  1.0000
  H   H155      1.0  0.74991  0.25142  0.38936  1.0000
  H   H156      1.0  0.44286  0.21629  0.43342  1.0000
  C   C223      1.0  0.23352  0.49103  0.41896  1.0000
  C   C224      1.0  0.25584  0.49385  0.43558  1.0000
  C   C225      1.0  0.27197  0.50152  0.36361  1.0000
  N   N31       1.0  0.26127  0.49014  0.51898  1.0000
  H   H157      1.0  0.25007  0.48555  0.56748  1.0000
  H   H158      1.0  0.27684  0.49330  0.53416  1.0000
  H   H159      1.0  0.22156  0.48628  0.46928  1.0000
  N   N32       1.0  0.29541  0.50688  0.36833  1.0000
  H   H160      1.0  0.30351  0.51856  0.41916  1.0000
  C   C226      1.0  0.60086  0.83743  0.41956  1.0000
  C   C227      1.0  0.59804  0.85693  0.43614  1.0000
  C   C228      1.0  0.59039  0.86541  0.36411  1.0000
  N   N33       1.0  0.60173  0.86605  0.51952  1.0000
  H   H161      1.0  0.60632  0.85942  0.56806  1.0000
  H   H162      1.0  0.59858  0.87845  0.53467  1.0000
  H   H163      1.0  0.60560  0.83021  0.46992  1.0000
  N   N34       1.0  0.58502  0.88348  0.36878  1.0000
  H   H164      1.0  0.57334  0.87989  0.41957  1.0000
  C   C229      1.0  0.25440  0.85833  0.41912  1.0000
  C   C230      1.0  0.23493  0.83599  0.43550  1.0000
  C   C231      1.0  0.22647  0.81993  0.36332  1.0000
  N   N35       1.0  0.22580  0.83047  0.51886  1.0000
  H   H165      1.0  0.23232  0.84167  0.56742  1.0000
  H   H166      1.0  0.21332  0.81493  0.53380  1.0000
  H   H167      1.0  0.26164  0.87023  0.46964  1.0000
  N   N36       1.0  0.20840  0.79648  0.36776  1.0000
  H   H168      1.0  0.21197  0.78835  0.41852  1.0000
  C   C232      1.0  0.82819  0.63304  0.41854  1.0000
  C   C233      1.0  0.80609  0.63078  0.43477  1.0000
  C   C234      1.0  0.79001  0.62340  0.36264  1.0000
  N   N37       1.0  0.80078  0.63469  0.51801  1.0000
  H   H169      1.0  0.81192  0.63907  0.56665  1.0000
  H   H170      1.0  0.78533  0.63189  0.53297  1.0000
  H   H171      1.0  0.84008  0.63754  0.46902  1.0000
  N   N38       1.0  0.76676  0.61865  0.36697  1.0000
  H   H172      1.0  0.75841  0.60705  0.41780  1.0000
  C   C235      1.0  0.45881  0.29007  0.41914  1.0000
  C   C236      1.0  0.46104  0.27021  0.43534  1.0000
  C   C237      1.0  0.46838  0.26150  0.36317  1.0000
  N   N39       1.0  0.45713  0.26095  0.51858  1.0000
  H   H173      1.0  0.45278  0.26773  0.56724  1.0000
  H   H174      1.0  0.45990  0.24828  0.53350  1.0000
  H   H175      1.0  0.45432  0.29745  0.46963  1.0000
  N   N40       1.0  0.47316  0.24302  0.36752  1.0000
  H   H176      1.0  0.48476  0.24627  0.41836  1.0000
  C   C238      1.0  0.80186  0.26373  0.41872  1.0000
  C   C239      1.0  0.82172  0.28584  0.43467  1.0000
  C   C240      1.0  0.83039  0.30185  0.36232  1.0000
  N   N41       1.0  0.83102  0.29121  0.51782  1.0000
  H   H177      1.0  0.82428  0.28010  0.56661  1.0000
  H   H178      1.0  0.84370  0.30666  0.53258  1.0000
  H   H179      1.0  0.79451  0.25188  0.46935  1.0000
  N   N42       1.0  0.84888  0.32511  0.36639  1.0000
  H   H180      1.0  0.84565  0.33348  0.41716  1.0000
