data_image0
_chemical_formula_structural       C16H16C3NC2NHCH3CHC3NC2NHCH3CHC3NC3NC5NC5NC36H26N4C3H2CHC3H2CH
_chemical_formula_sum              "C90 H58 N12"
_cell_length_a       34.3605
_cell_length_b       34.3585
_cell_length_c       14.7181
_cell_angle_alpha    90
_cell_angle_beta     90
_cell_angle_gamma    89.9342

_space_group_name_H-M_alt    "P 1"
_space_group_IT_number       1

loop_
  _space_group_symop_operation_xyz
  'x, y, z'

loop_
  _atom_site_type_symbol
  _atom_site_label
  _atom_site_symmetry_multiplicity
  _atom_site_fract_x
  _atom_site_fract_y
  _atom_site_fract_z
  _atom_site_occupancy
  C   C1        1.0  0.17788  0.01062  0.28830  1.0000
  C   C2        1.0  0.21888  0.01122  0.28687  1.0000
  C   C3        1.0  0.34435  0.03609  0.30512  1.0000
  C   C4        1.0  0.30334  0.03535  0.30704  1.0000
  C   C5        1.0  0.01040  0.17407  0.29432  1.0000
  C   C6        1.0  0.01062  0.21507  0.29449  1.0000
  C   C7        1.0  0.98839  0.29965  0.32345  1.0000
  C   C8        1.0  0.98820  0.34065  0.32342  1.0000
  C   C9        1.0  0.80744  0.00696  0.29492  1.0000
  C   C10       1.0  0.84844  0.00616  0.29462  1.0000
  C   C11       1.0  0.72270  0.98574  0.32418  1.0000
  C   C12       1.0  0.68170  0.98595  0.32442  1.0000
  C   C13       1.0  0.01491  0.84477  0.28818  1.0000
  C   C14       1.0  0.01528  0.80376  0.28651  1.0000
  C   C15       1.0  0.03861  0.67789  0.30396  1.0000
  C   C16       1.0  0.03836  0.71891  0.30615  1.0000
  H   H1        1.0  0.05691  0.66400  0.25960  1.0000
  H   H2        1.0  0.05708  0.73344  0.26411  1.0000
  H   H3        1.0  0.01650  0.79022  0.22468  1.0000
  H   H4        1.0  0.01645  0.85973  0.22812  1.0000
  H   H5        1.0  0.86279  0.00260  0.23421  1.0000
  H   H6        1.0  0.79325  0.00441  0.23409  1.0000
  H   H7        1.0  0.00707  0.15964  0.23396  1.0000
  H   H8        1.0  0.00788  0.22920  0.23362  1.0000
  H   H9        1.0  0.96751  0.35471  0.28583  1.0000
  H   H10       1.0  0.96771  0.28550  0.28593  1.0000
  H   H11       1.0  0.28858  0.05385  0.26482  1.0000
  H   H12       1.0  0.35802  0.05451  0.26074  1.0000
  H   H13       1.0  0.23248  0.01258  0.22513  1.0000
  H   H14       1.0  0.16297  0.01220  0.22819  1.0000
  H   H15       1.0  0.73664  0.96491  0.28659  1.0000
  H   H16       1.0  0.66743  0.96539  0.28697  1.0000
  C   C17       1.0  0.00643  0.46750  0.34462  1.0000
  C   C18       1.0  0.00338  0.49531  0.27345  1.0000
  C   C19       1.0  0.00356  0.53604  0.29214  1.0000
  N   N1        1.0  0.99944  0.56075  0.22037  1.0000
  C   C20       1.0  0.99571  0.54930  0.13248  1.0000
  C   C21       1.0  0.99599  0.50907  0.11455  1.0000
  N   N2        1.0  0.99963  0.48402  0.18510  1.0000
  H   H17       1.0  0.99324  0.49853  0.04995  1.0000
  C   C22       1.0  0.99156  0.57830  0.05930  1.0000
  H   H18       1.0  0.99183  0.60786  0.08656  1.0000
  H   H19       1.0  0.96411  0.57380  0.02352  1.0000
  H   H20       1.0  0.01555  0.57536  0.01118  1.0000
  C   C23       1.0  0.00285  0.42759  0.32743  1.0000
  H   H21       1.0  0.98896  0.41944  0.27141  1.0000
  C   C24       1.0  0.55507  0.00538  0.34566  1.0000
  C   C25       1.0  0.52722  0.00302  0.27446  1.0000
  C   C26       1.0  0.48650  0.00308  0.29331  1.0000
  N   N3        1.0  0.46176  0.99966  0.22141  1.0000
  C   C27       1.0  0.47315  0.99674  0.13331  1.0000
  C   C28       1.0  0.51336  0.99712  0.11526  1.0000
  N   N4        1.0  0.53846  0.00007  0.18589  1.0000
  H   H22       1.0  0.52387  0.99497  0.05050  1.0000
  C   C29       1.0  0.44410  0.99332  0.06004  1.0000
  H   H23       1.0  0.41457  0.99341  0.08742  1.0000
  H   H24       1.0  0.44859  0.96619  0.02290  1.0000
  H   H25       1.0  0.44700  0.01773  0.01311  1.0000
  C   C30       1.0  0.59498  0.00184  0.32815  1.0000
  H   H26       1.0  0.60308  0.98854  0.27128  1.0000
  C   C31       1.0  0.08519  0.90765  0.37238  1.0000
  C   C32       1.0  0.11383  0.93583  0.37231  1.0000
  C   C33       1.0  0.09587  0.97234  0.37323  1.0000
  N   N5        1.0  0.05708  0.96484  0.37384  1.0000
  C   C34       1.0  0.04895  0.92618  0.37308  1.0000
  C   C35       1.0  0.01233  0.90673  0.37310  1.0000
  C   C36       1.0  0.97560  0.92585  0.37410  1.0000
  N   N6        1.0  0.96831  0.96457  0.37466  1.0000
  C   C37       1.0  0.92973  0.97249  0.37535  1.0000
  C   C38       1.0  0.91103  0.93641  0.37550  1.0000
  C   C39       1.0  0.93923  0.90774  0.37444  1.0000
  C   C40       1.0  0.91122  0.00954  0.37608  1.0000
  C   C41       1.0  0.93127  0.04583  0.37623  1.0000
  N   N7        1.0  0.97006  0.05331  0.37607  1.0000
  C   C42       1.0  0.97819  0.09197  0.37605  1.0000
  C   C43       1.0  0.94198  0.11053  0.37641  1.0000
  C   C44       1.0  0.91334  0.08237  0.37616  1.0000
  C   C45       1.0  0.01481  0.11141  0.37600  1.0000
  C   C46       1.0  0.05152  0.09228  0.37542  1.0000
  N   N8        1.0  0.05878  0.05357  0.37501  1.0000
  C   C47       1.0  0.09736  0.04567  0.37390  1.0000
  C   C48       1.0  0.11608  0.08174  0.37368  1.0000
  C   C49       1.0  0.08789  0.11040  0.37438  1.0000
  C   C50       1.0  0.11588  0.00864  0.37308  1.0000
  C   C51       1.0  0.15750  0.00807  0.37139  1.0000
  C   C52       1.0  0.24098  0.00929  0.36815  1.0000
  C   C53       1.0  0.22012  0.00651  0.45106  1.0000
  C   C54       1.0  0.17911  0.00599  0.45284  1.0000
  C   C55       1.0  0.28280  0.01028  0.36663  1.0000
  C   C56       1.0  0.30527  0.98601  0.42429  1.0000
  C   C57       1.0  0.34627  0.98679  0.42260  1.0000
  C   C58       1.0  0.36648  0.01215  0.36342  1.0000
  C   C59       1.0  0.01485  0.15304  0.37609  1.0000
  C   C60       1.0  0.01551  0.23649  0.37606  1.0000
  C   C61       1.0  0.02010  0.21502  0.45765  1.0000
  C   C62       1.0  0.01969  0.17402  0.45784  1.0000
  C   C63       1.0  0.01556  0.27828  0.37602  1.0000
  C   C64       1.0  0.01545  0.36198  0.37554  1.0000
  C   C65       1.0  0.04229  0.34087  0.42887  1.0000
  C   C66       1.0  0.04243  0.29983  0.42897  1.0000
  C   C67       1.0  0.86958  0.01029  0.37632  1.0000
  C   C68       1.0  0.84871  0.01546  0.45812  1.0000
  C   C69       1.0  0.80771  0.01647  0.45805  1.0000
  C   C70       1.0  0.78613  0.01215  0.37656  1.0000
  C   C71       1.0  0.74434  0.01267  0.37668  1.0000
  C   C72       1.0  0.66064  0.01338  0.37673  1.0000
  C   C73       1.0  0.68201  0.03999  0.42999  1.0000
  C   C74       1.0  0.72305  0.03973  0.42981  1.0000
  C   C75       1.0  0.01238  0.86510  0.37135  1.0000
  C   C76       1.0  0.01011  0.84340  0.45266  1.0000
  C   C77       1.0  0.01306  0.78159  0.36763  1.0000
  C   C78       1.0  0.01039  0.80239  0.45065  1.0000
  C   C79       1.0  0.01353  0.73974  0.36582  1.0000
  C   C80       1.0  0.98893  0.71755  0.42320  1.0000
  C   C81       1.0  0.98922  0.67653  0.42125  1.0000
  C   C82       1.0  0.01437  0.65603  0.36204  1.0000
  H   H27       1.0  0.97029  0.66182  0.46232  1.0000
  H   H28       1.0  0.96965  0.73110  0.46572  1.0000
  H   H29       1.0  0.00944  0.78782  0.51123  1.0000
  H   H30       1.0  0.00844  0.85735  0.51400  1.0000
  H   H31       1.0  0.09050  0.87837  0.37179  1.0000
  H   H32       1.0  0.14302  0.93008  0.37155  1.0000
  H   H33       1.0  0.03747  0.98476  0.37429  1.0000
  H   H34       1.0  0.98965  0.03338  0.37614  1.0000
  H   H35       1.0  0.93365  0.87852  0.37419  1.0000
  H   H36       1.0  0.88173  0.93130  0.37621  1.0000
  H   H37       1.0  0.86326  0.01843  0.51841  1.0000
  H   H38       1.0  0.79369  0.01957  0.51896  1.0000
  H   H39       1.0  0.88416  0.08818  0.37599  1.0000
  H   H40       1.0  0.93667  0.13981  0.37663  1.0000
  H   H41       1.0  0.14538  0.08685  0.37283  1.0000
  H   H42       1.0  0.09350  0.13961  0.37394  1.0000
  H   H43       1.0  0.02290  0.15953  0.51817  1.0000
  H   H44       1.0  0.02304  0.22912  0.51850  1.0000
  H   H45       1.0  0.06295  0.28580  0.46727  1.0000
  H   H46       1.0  0.06227  0.35533  0.46787  1.0000
  H   H47       1.0  0.16511  0.00448  0.51414  1.0000
  H   H48       1.0  0.23463  0.00583  0.51174  1.0000
  H   H49       1.0  0.36121  0.96808  0.46386  1.0000
  H   H50       1.0  0.29194  0.96660  0.46682  1.0000
  H   H51       1.0  0.73728  0.06008  0.46812  1.0000
  H   H52       1.0  0.66774  0.06008  0.46917  1.0000
  N   N9        1.0  0.40519  0.01328  0.35532  1.0000
  N   N10       1.0  0.01514  0.61729  0.35389  1.0000
  N   N11       1.0  0.62175  0.01474  0.38156  1.0000
  N   N12       1.0  0.01653  0.40088  0.38004  1.0000
  C   C83       1.0  0.00696  0.55001  0.38265  1.0000
  C   C84       1.0  0.01058  0.52201  0.45278  1.0000
  C   C85       1.0  0.01039  0.48180  0.43434  1.0000
  H   H53       1.0  0.01193  0.46295  0.48811  1.0000
  H   H54       1.0  0.01264  0.53064  0.51923  1.0000
  C   C86       1.0  0.00422  0.58936  0.40640  1.0000
  H   H55       1.0  0.99342  0.59602  0.46717  1.0000
  C   C87       1.0  0.47259  0.00564  0.38404  1.0000
  C   C88       1.0  0.50065  0.00867  0.45419  1.0000
  C   C89       1.0  0.54084  0.00856  0.43559  1.0000
  H   H56       1.0  0.55971  0.00965  0.48936  1.0000
  H   H57       1.0  0.49206  0.01015  0.52077  1.0000
  C   C90       1.0  0.43326  0.00270  0.40789  1.0000
  H   H58       1.0  0.42670  0.99190  0.46869  1.0000
