data_image0
_chemical_formula_structural       C4HC2H3OC4HC2H3OC4HC2H3ON12CNCNCNC18H12CNCNCNC18H12CNCNCNC18H12CNCNCNC18H12CNCNCNC18H12CNCNCNC18H12N6C4HC2H3OC4HC2H3OC4HC2H3OC4HC2H3OC4HC2H3OC4HC2H3O
_chemical_formula_sum              "C180 H108 O9 N36"
_cell_length_a       60.1753
_cell_length_b       60.1754
_cell_length_c       15.0238
_cell_angle_alpha    90
_cell_angle_beta     90
_cell_angle_gamma    120

_space_group_name_H-M_alt    "P 1"
_space_group_IT_number       1

loop_
  _space_group_symop_operation_xyz
  'x, y, z'

loop_
  _atom_site_type_symbol
  _atom_site_label
  _atom_site_symmetry_multiplicity
  _atom_site_fract_x
  _atom_site_fract_y
  _atom_site_fract_z
  _atom_site_occupancy
  C   C1        1.0  0.02558  0.51299  0.30436  1.0000
  C   C2        1.0  0.01264  0.51663  0.23234  1.0000
  C   C3        1.0  0.98554  0.50287  0.22848  1.0000
  C   C4        1.0  0.97205  0.48541  0.29858  1.0000
  H   H1        1.0  0.02293  0.52890  0.18170  1.0000
  C   C5        1.0  0.97283  0.50533  0.15515  1.0000
  C   C6        1.0  0.96937  0.48968  0.07742  1.0000
  H   H2        1.0  0.98760  0.49648  0.04270  1.0000
  H   H3        1.0  0.95569  0.49049  0.03166  1.0000
  H   H4        1.0  0.96182  0.46963  0.09629  1.0000
  O   O1        1.0  0.97697  0.52710  0.14044  1.0000
  C   C7        1.0  0.48512  0.51223  0.30418  1.0000
  C   C8        1.0  0.48144  0.49563  0.23218  1.0000
  C   C9        1.0  0.49525  0.48234  0.22805  1.0000
  C   C10       1.0  0.51276  0.48634  0.29800  1.0000
  H   H5        1.0  0.46912  0.49363  0.18168  1.0000
  C   C11       1.0  0.49270  0.46712  0.15484  1.0000
  C   C12       1.0  0.50868  0.47947  0.07772  1.0000
  H   H6        1.0  0.50220  0.49118  0.04316  1.0000
  H   H7        1.0  0.50784  0.46505  0.03149  1.0000
  H   H8        1.0  0.52870  0.49170  0.09736  1.0000
  O   O2        1.0  0.47093  0.44981  0.13801  1.0000
  C   C13       1.0  0.48584  0.97252  0.30448  1.0000
  C   C14       1.0  0.50243  0.98544  0.23245  1.0000
  C   C15       1.0  0.51576  0.01254  0.22844  1.0000
  C   C16       1.0  0.51179  0.02606  0.29845  1.0000
  H   H9        1.0  0.50438  0.97513  0.18183  1.0000
  C   C17       1.0  0.53092  0.02522  0.15507  1.0000
  C   C18       1.0  0.51872  0.02867  0.07732  1.0000
  H   H10       1.0  0.50728  0.01043  0.04266  1.0000
  H   H11       1.0  0.53321  0.04233  0.03151  1.0000
  H   H12       1.0  0.50623  0.03623  0.09615  1.0000
  O   O3        1.0  0.54854  0.02108  0.14037  1.0000
  N   N1        1.0  0.24883  0.52824  0.27783  1.0000
  N   N2        1.0  0.27074  0.52921  0.26515  1.0000
  N   N3        1.0  0.46915  0.71989  0.27745  1.0000
  N   N4        1.0  0.46825  0.74085  0.26465  1.0000
  N   N5        1.0  0.27797  0.74911  0.27813  1.0000
  N   N6        1.0  0.25708  0.72717  0.26541  1.0000
  N   N7        1.0  0.74967  0.47010  0.27559  1.0000
  N   N8        1.0  0.72800  0.46963  0.26325  1.0000
  N   N9        1.0  0.52797  0.27925  0.27585  1.0000
  N   N10       1.0  0.52836  0.25802  0.26317  1.0000
  N   N11       1.0  0.71898  0.24837  0.27557  1.0000
  N   N12       1.0  0.74021  0.27001  0.26312  1.0000
  C   C19       1.0  0.17451  0.60669  0.33058  1.0000
  N   N13       1.0  0.14848  0.59352  0.32827  1.0000
  C   C20       1.0  0.13467  0.56749  0.33606  1.0000
  N   N14       1.0  0.14784  0.55471  0.34685  1.0000
  C   C21       1.0  0.17386  0.56712  0.35107  1.0000
  N   N15       1.0  0.18668  0.59304  0.34218  1.0000
  C   C22       1.0  0.10742  0.55404  0.33041  1.0000
  C   C23       1.0  0.09414  0.56637  0.29899  1.0000
  C   C24       1.0  0.06730  0.55290  0.29014  1.0000
  C   C25       1.0  0.05270  0.52666  0.31325  1.0000
  C   C26       1.0  0.06580  0.51445  0.34703  1.0000
  C   C27       1.0  0.09270  0.52783  0.35455  1.0000
  C   C28       1.0  0.18893  0.63374  0.32132  1.0000
  C   C29       1.0  0.17999  0.64980  0.35517  1.0000
  C   C30       1.0  0.19593  0.67670  0.35505  1.0000
  C   C31       1.0  0.22090  0.68835  0.31811  1.0000
  C   C32       1.0  0.22909  0.67223  0.27926  1.0000
  C   C33       1.0  0.21353  0.64543  0.28173  1.0000
  C   C34       1.0  0.18767  0.55388  0.36153  1.0000
  C   C35       1.0  0.21219  0.56631  0.40197  1.0000
  C   C36       1.0  0.22723  0.55452  0.40535  1.0000
  C   C37       1.0  0.21829  0.52997  0.36783  1.0000
  C   C38       1.0  0.19374  0.51727  0.32816  1.0000
  C   C39       1.0  0.17836  0.52885  0.32699  1.0000
  H   H13       1.0  0.18941  0.68769  0.38455  1.0000
  H   H14       1.0  0.16248  0.64204  0.38584  1.0000
  H   H15       1.0  0.24726  0.67969  0.25411  1.0000
  H   H16       1.0  0.22071  0.63453  0.25607  1.0000
  H   H17       1.0  0.21974  0.58446  0.42739  1.0000
  H   H18       1.0  0.24544  0.56473  0.43071  1.0000
  H   H19       1.0  0.16106  0.51958  0.29482  1.0000
  H   H20       1.0  0.18728  0.49993  0.29739  1.0000
  H   H21       1.0  0.10136  0.51809  0.37826  1.0000
  H   H22       1.0  0.05593  0.49545  0.36437  1.0000
  H   H23       1.0  0.05854  0.56268  0.26769  1.0000
  H   H24       1.0  0.10385  0.58527  0.28059  1.0000
  C   C40       1.0  0.39119  0.56716  0.33092  1.0000
  N   N16       1.0  0.40440  0.55434  0.32868  1.0000
  C   C41       1.0  0.43043  0.56661  0.33662  1.0000
  N   N17       1.0  0.44317  0.59256  0.34747  1.0000
  C   C42       1.0  0.43071  0.60613  0.35163  1.0000
  N   N18       1.0  0.40479  0.59297  0.34257  1.0000
  C   C43       1.0  0.44393  0.55286  0.33091  1.0000
  C   C44       1.0  0.43162  0.52723  0.29964  1.0000
  C   C45       1.0  0.44513  0.51391  0.29056  1.0000
  C   C46       1.0  0.47141  0.52562  0.31333  1.0000
  C   C47       1.0  0.48360  0.55094  0.34704  1.0000
  C   C48       1.0  0.47017  0.56441  0.35475  1.0000
  C   C49       1.0  0.36415  0.55451  0.32147  1.0000
  C   C50       1.0  0.34809  0.52954  0.35559  1.0000
  C   C51       1.0  0.32118  0.51856  0.35524  1.0000
  C   C52       1.0  0.30952  0.53182  0.31793  1.0000
  C   C53       1.0  0.32566  0.55613  0.27903  1.0000
  C   C54       1.0  0.35247  0.56738  0.28157  1.0000
  C   C55       1.0  0.44388  0.63318  0.36209  1.0000
  C   C56       1.0  0.43130  0.64521  0.40189  1.0000
  C   C57       1.0  0.44298  0.67204  0.40490  1.0000
  C   C58       1.0  0.46760  0.68769  0.36794  1.0000
  C   C59       1.0  0.48046  0.67591  0.32904  1.0000
  C   C60       1.0  0.46895  0.64895  0.32801  1.0000
  H   H25       1.0  0.31018  0.50105  0.38479  1.0000
  H   H26       1.0  0.35584  0.51979  0.38627  1.0000
  H   H27       1.0  0.31821  0.56683  0.25372  1.0000
  H   H28       1.0  0.36337  0.58545  0.25587  1.0000
  H   H29       1.0  0.41311  0.63458  0.42691  1.0000
  H   H30       1.0  0.43267  0.67999  0.42972  1.0000
  H   H31       1.0  0.47832  0.64095  0.29631  1.0000
  H   H32       1.0  0.49783  0.68682  0.29848  1.0000
  H   H33       1.0  0.47989  0.58283  0.37832  1.0000
  H   H34       1.0  0.50262  0.56012  0.36410  1.0000
  H   H35       1.0  0.43538  0.49537  0.26819  1.0000
  H   H36       1.0  0.41270  0.51799  0.28141  1.0000
  C   C61       1.0  0.43062  0.82360  0.33074  1.0000
  N   N19       1.0  0.44349  0.84964  0.32848  1.0000
  C   C62       1.0  0.43127  0.86344  0.33646  1.0000
  N   N20       1.0  0.40532  0.85027  0.34739  1.0000
  C   C63       1.0  0.39171  0.82426  0.35158  1.0000
  N   N21       1.0  0.40481  0.81143  0.34249  1.0000
  C   C64       1.0  0.44506  0.89069  0.33080  1.0000
  C   C65       1.0  0.47068  0.90397  0.29938  1.0000
  C   C66       1.0  0.48405  0.93080  0.29045  1.0000
  C   C67       1.0  0.47240  0.94541  0.31349  1.0000
  C   C68       1.0  0.44709  0.93232  0.34729  1.0000
  C   C69       1.0  0.43358  0.90542  0.35488  1.0000
  C   C70       1.0  0.44323  0.80918  0.32116  1.0000
  C   C71       1.0  0.46824  0.81807  0.35490  1.0000
  C   C72       1.0  0.47917  0.80210  0.35452  1.0000
  C   C73       1.0  0.46582  0.77715  0.31743  1.0000
  C   C74       1.0  0.44150  0.76902  0.27863  1.0000
  C   C75       1.0  0.43030  0.78461  0.28136  1.0000
  C   C76       1.0  0.36467  0.81043  0.36210  1.0000
  C   C77       1.0  0.35261  0.78593  0.40267  1.0000
  C   C78       1.0  0.32578  0.77084  0.40595  1.0000
  C   C79       1.0  0.31015  0.77973  0.36823  1.0000
  C   C80       1.0  0.32197  0.80426  0.32847  1.0000
  C   C81       1.0  0.34893  0.81969  0.32739  1.0000
  H   H37       1.0  0.49668  0.80858  0.38396  1.0000
  H   H38       1.0  0.47801  0.83555  0.38571  1.0000
  H   H39       1.0  0.43076  0.75087  0.25336  1.0000
  H   H40       1.0  0.41221  0.77747  0.25575  1.0000
  H   H41       1.0  0.36323  0.77842  0.42820  1.0000
  H   H42       1.0  0.31781  0.75264  0.43138  1.0000
  H   H43       1.0  0.35694  0.83697  0.29511  1.0000
  H   H44       1.0  0.31107  0.81067  0.29754  1.0000
  H   H45       1.0  0.41518  0.89675  0.37859  1.0000
  H   H46       1.0  0.43796  0.94219  0.36457  1.0000
  H   H47       1.0  0.50258  0.93957  0.26800  1.0000
  H   H48       1.0  0.47987  0.89426  0.28102  1.0000
  C   C82       1.0  0.82347  0.39025  0.32709  1.0000
  N   N22       1.0  0.84952  0.40350  0.32432  1.0000
  C   C83       1.0  0.86316  0.42959  0.33051  1.0000
  N   N23       1.0  0.84979  0.44220  0.34038  1.0000
  C   C84       1.0  0.82381  0.42972  0.34538  1.0000
  N   N24       1.0  0.81114  0.40378  0.33792  1.0000
  C   C85       1.0  0.89041  0.44344  0.32432  1.0000
  C   C86       1.0  0.90490  0.43075  0.32640  1.0000
  C   C87       1.0  0.93180  0.44453  0.31876  1.0000
  C   C88       1.0  0.94499  0.47140  0.30687  1.0000
  C   C89       1.0  0.93077  0.48426  0.30623  1.0000
  C   C90       1.0  0.90395  0.47050  0.31489  1.0000
  C   C91       1.0  0.80901  0.36320  0.31823  1.0000
  C   C92       1.0  0.81740  0.34704  0.35522  1.0000
  C   C93       1.0  0.80119  0.32016  0.35559  1.0000
  C   C94       1.0  0.77654  0.30864  0.31614  1.0000
  C   C95       1.0  0.76895  0.32488  0.27427  1.0000
  C   C96       1.0  0.78477  0.35164  0.27607  1.0000
  C   C97       1.0  0.81004  0.44300  0.35578  1.0000
  C   C98       1.0  0.78569  0.43080  0.39747  1.0000
  C   C99       1.0  0.77086  0.44281  0.40195  1.0000
  C   C100      1.0  0.77987  0.46737  0.36445  1.0000
  C   C101      1.0  0.80422  0.47982  0.32333  1.0000
  C   C102      1.0  0.81937  0.46799  0.32086  1.0000
  H   H49       1.0  0.80727  0.30910  0.38727  1.0000
  H   H50       1.0  0.83466  0.35473  0.38756  1.0000
  H   H51       1.0  0.75101  0.31756  0.24728  1.0000
  H   H52       1.0  0.77798  0.36263  0.24824  1.0000
  H   H53       1.0  0.77814  0.41268  0.42318  1.0000
  H   H54       1.0  0.75278  0.43279  0.42843  1.0000
  H   H55       1.0  0.83658  0.47714  0.28808  1.0000
  H   H56       1.0  0.81071  0.49716  0.29252  1.0000
  H   H57       1.0  0.89447  0.48064  0.31309  1.0000
  H   H58       1.0  0.93983  0.50381  0.30020  1.0000
  H   H59       1.0  0.94163  0.43472  0.31997  1.0000
  H   H60       1.0  0.89605  0.41126  0.33383  1.0000
  C   C103      1.0  0.60782  0.43280  0.32757  1.0000
  N   N25       1.0  0.59459  0.44562  0.32440  1.0000
  C   C104      1.0  0.56850  0.43320  0.33051  1.0000
  N   N26       1.0  0.55586  0.40723  0.34068  1.0000
  C   C105      1.0  0.56832  0.39372  0.34608  1.0000
  N   N27       1.0  0.59427  0.40695  0.33869  1.0000
  C   C106      1.0  0.55468  0.44663  0.32402  1.0000
  C   C107      1.0  0.56738  0.47380  0.32598  1.0000
  C   C108      1.0  0.55362  0.48694  0.31819  1.0000
  C   C109      1.0  0.52675  0.47328  0.30626  1.0000
  C   C110      1.0  0.51388  0.44620  0.30567  1.0000
  C   C111      1.0  0.52762  0.43313  0.31447  1.0000
  C   C112      1.0  0.63486  0.44535  0.31865  1.0000
  C   C113      1.0  0.65105  0.46998  0.35508  1.0000
  C   C114      1.0  0.67792  0.48063  0.35544  1.0000
  C   C115      1.0  0.68941  0.46741  0.31642  1.0000
  C   C116      1.0  0.67315  0.44354  0.27488  1.0000
  C   C117      1.0  0.64639  0.43259  0.27685  1.0000
  C   C118      1.0  0.55502  0.36668  0.35670  1.0000
  C   C119      1.0  0.56713  0.35458  0.39933  1.0000
  C   C120      1.0  0.55513  0.32773  0.40395  1.0000
  C   C121      1.0  0.53071  0.31214  0.36547  1.0000
  C   C122      1.0  0.51840  0.32402  0.32326  1.0000
  C   C123      1.0  0.53016  0.35099  0.32086  1.0000
  H   H61       1.0  0.68901  0.49781  0.38686  1.0000
  H   H62       1.0  0.64338  0.47958  0.38736  1.0000
  H   H63       1.0  0.68045  0.43287  0.24809  1.0000
  H   H64       1.0  0.63538  0.41478  0.24926  1.0000
  H   H65       1.0  0.58515  0.36517  0.42571  1.0000
  H   H66       1.0  0.56512  0.31971  0.43095  1.0000
  H   H67       1.0  0.52111  0.35901  0.28726  1.0000
  H   H68       1.0  0.50118  0.31314  0.29168  1.0000
  H   H69       1.0  0.51746  0.41350  0.31274  1.0000
  H   H70       1.0  0.49433  0.43572  0.29960  1.0000
  H   H71       1.0  0.56346  0.50659  0.31938  1.0000
  H   H72       1.0  0.58688  0.48443  0.33348  1.0000
  C   C124      1.0  0.56525  0.17465  0.32683  1.0000
  N   N28       1.0  0.55244  0.14860  0.32396  1.0000
  C   C125      1.0  0.56488  0.13495  0.33009  1.0000
  N   N29       1.0  0.59086  0.14831  0.34000  1.0000
  C   C126      1.0  0.60437  0.17429  0.34508  1.0000
  N   N30       1.0  0.59111  0.18698  0.33770  1.0000
  C   C127      1.0  0.55147  0.10770  0.32392  1.0000
  C   C128      1.0  0.52430  0.09322  0.32600  1.0000
  C   C129      1.0  0.51117  0.06631  0.31845  1.0000
  C   C130      1.0  0.52484  0.05311  0.30664  1.0000
  C   C131      1.0  0.55192  0.06733  0.30598  1.0000
  C   C132      1.0  0.56498  0.09415  0.31455  1.0000
  C   C133      1.0  0.55267  0.18912  0.31800  1.0000
  C   C134      1.0  0.52809  0.18070  0.35484  1.0000
  C   C135      1.0  0.51742  0.19691  0.35522  1.0000
  C   C136      1.0  0.53058  0.22159  0.31600  1.0000
  C   C137      1.0  0.55442  0.22920  0.27425  1.0000
  C   C138      1.0  0.56537  0.21338  0.27601  1.0000
  C   C139      1.0  0.63141  0.18805  0.35556  1.0000
  C   C140      1.0  0.64352  0.21226  0.39815  1.0000
  C   C141      1.0  0.67036  0.22709  0.40282  1.0000
  C   C142      1.0  0.68593  0.21821  0.36451  1.0000
  C   C143      1.0  0.67406  0.19401  0.32239  1.0000
  C   C144      1.0  0.64709  0.17885  0.31982  1.0000
  H   H73       1.0  0.50025  0.19080  0.38676  1.0000
  H   H74       1.0  0.51850  0.16342  0.38702  1.0000
  H   H75       1.0  0.56506  0.24716  0.24738  1.0000
  H   H76       1.0  0.58317  0.22019  0.24828  1.0000
  H   H77       1.0  0.63293  0.21970  0.42450  1.0000
  H   H78       1.0  0.67840  0.24508  0.43002  1.0000
  H   H79       1.0  0.63904  0.16174  0.28636  1.0000
  H   H80       1.0  0.68493  0.18764  0.29098  1.0000
  H   H81       1.0  0.58461  0.10363  0.31276  1.0000
  H   H82       1.0  0.56241  0.05826  0.30000  1.0000
  H   H83       1.0  0.49152  0.05649  0.31966  1.0000
  H   H84       1.0  0.51366  0.10208  0.33339  1.0000
  N   N31       1.0  0.98593  0.48264  0.36450  1.0000
  N   N32       1.0  0.01096  0.49549  0.36712  1.0000
  N   N33       1.0  0.51555  0.50299  0.36395  1.0000
  N   N34       1.0  0.50268  0.51515  0.36674  1.0000
  N   N35       1.0  0.49515  0.01220  0.36443  1.0000
  N   N36       1.0  0.48297  0.98716  0.36716  1.0000
  C   C145      1.0  0.28302  0.52349  0.32926  1.0000
  C   C146      1.0  0.27064  0.51542  0.41267  1.0000
  C   C147      1.0  0.24715  0.51487  0.42810  1.0000
  C   C148      1.0  0.23606  0.52136  0.35653  1.0000
  H   H85       1.0  0.27982  0.51233  0.46451  1.0000
  C   C149      1.0  0.23562  0.50890  0.51146  1.0000
  C   C150      1.0  0.24848  0.52538  0.58695  1.0000
  H   H86       1.0  0.26395  0.52244  0.61096  1.0000
  H   H87       1.0  0.23481  0.52113  0.64107  1.0000
  H   H88       1.0  0.25652  0.54555  0.56903  1.0000
  O   O4        1.0  0.22355  0.48587  0.52739  1.0000
  C   C151      1.0  0.47414  0.75896  0.32848  1.0000
  C   C152      1.0  0.48243  0.75477  0.41166  1.0000
  C   C153      1.0  0.48283  0.73175  0.42735  1.0000
  C   C154      1.0  0.47606  0.71402  0.35609  1.0000
  H   H89       1.0  0.48559  0.76707  0.46345  1.0000
  C   C155      1.0  0.48902  0.72633  0.51062  1.0000
  C   C156      1.0  0.47219  0.72242  0.58538  1.0000
  H   H90       1.0  0.47469  0.74071  0.60893  1.0000
  H   H91       1.0  0.47655  0.71326  0.64005  1.0000
  H   H92       1.0  0.45211  0.70996  0.56698  1.0000
  O   O5        1.0  0.51201  0.73761  0.52701  1.0000
  C   C157      1.0  0.23902  0.71487  0.32936  1.0000
  C   C158      1.0  0.24322  0.72730  0.41264  1.0000
  C   C159      1.0  0.26616  0.75080  0.42820  1.0000
  C   C160      1.0  0.28378  0.76190  0.35677  1.0000
  H   H93       1.0  0.23099  0.71808  0.46451  1.0000
  C   C161      1.0  0.27166  0.76232  0.51156  1.0000
  C   C162      1.0  0.27527  0.74948  0.58713  1.0000
  H   H94       1.0  0.25685  0.73399  0.61107  1.0000
  H   H95       1.0  0.28466  0.76315  0.64127  1.0000
  H   H96       1.0  0.28743  0.74146  0.56932  1.0000
  O   O6        1.0  0.26066  0.77436  0.52737  1.0000
  C   C163      1.0  0.71581  0.47529  0.32792  1.0000
  C   C164      1.0  0.72811  0.48275  0.41166  1.0000
  C   C165      1.0  0.75132  0.48269  0.42674  1.0000
  C   C166      1.0  0.76233  0.47633  0.35455  1.0000
  H   H97       1.0  0.71899  0.48576  0.46388  1.0000
  C   C167      1.0  0.76283  0.48823  0.51009  1.0000
  C   C168      1.0  0.74952  0.47156  0.58488  1.0000
  H   H98       1.0  0.73442  0.47500  0.60947  1.0000
  H   H99       1.0  0.76304  0.47514  0.63898  1.0000
  H   H100      1.0  0.74092  0.45140  0.56591  1.0000
  O   O7        1.0  0.77536  0.51110  0.52797  1.0000
  C   C169      1.0  0.52279  0.24018  0.32778  1.0000
  C   C170      1.0  0.51539  0.24496  0.41174  1.0000
  C   C171      1.0  0.51556  0.26827  0.42726  1.0000
  C   C172      1.0  0.52197  0.28568  0.35517  1.0000
  H   H101      1.0  0.51243  0.23282  0.46387  1.0000
  C   C173      1.0  0.51006  0.27420  0.51086  1.0000
  C   C174      1.0  0.52671  0.27726  0.58532  1.0000
  H   H102      1.0  0.52305  0.25860  0.60944  1.0000
  H   H103      1.0  0.52326  0.28719  0.63975  1.0000
  H   H104      1.0  0.54688  0.28867  0.56635  1.0000
  O   O8        1.0  0.48714  0.26407  0.52765  1.0000
  C   C175      1.0  0.75797  0.28226  0.32797  1.0000
  C   C176      1.0  0.75303  0.27010  0.41196  1.0000
  C   C177      1.0  0.72975  0.24689  0.42704  1.0000
  C   C178      1.0  0.71243  0.23583  0.35475  1.0000
  H   H105      1.0  0.76513  0.27925  0.46421  1.0000
  C   C179      1.0  0.72368  0.23551  0.51063  1.0000
  C   C180      1.0  0.72072  0.24892  0.58576  1.0000
  H   H106      1.0  0.73941  0.26372  0.61036  1.0000
  H   H107      1.0  0.71061  0.23540  0.63966  1.0000
  H   H108      1.0  0.70950  0.25792  0.56718  1.0000
  O   O9        1.0  0.73363  0.22252  0.52711  1.0000
