data_image0
_chemical_formula_structural       C12H6CH2C2O2C12H6CH2C2O2C12H6CH2C2O2C6H4NHC6H4NHC6H4NHC6H4NHC6H4NHC6H4NHC12H6C2H2C2O2C12H6C2H2C2O2C12H6C2H2C2O2C4H2C2H2NHC4H2C2H2NHC4H2C2H2NHC4H2C2H2NHC4H2C2H2NHC4H2C2H2NH
_chemical_formula_sum              "C165 H108 O12 N12"
_cell_length_a       42.9751
_cell_length_b       42.9751
_cell_length_c       15.0387
_cell_angle_alpha    90
_cell_angle_beta     90
_cell_angle_gamma    120

_space_group_name_H-M_alt    "P 1"
_space_group_IT_number       1

loop_
  _space_group_symop_operation_xyz
  'x, y, z'

loop_
  _atom_site_type_symbol
  _atom_site_label
  _atom_site_symmetry_multiplicity
  _atom_site_fract_x
  _atom_site_fract_y
  _atom_site_fract_z
  _atom_site_occupancy
  C   C1        1.0  0.97398  0.50782  0.27651  1.0000
  C   C2        1.0  0.97479  0.50806  0.18199  1.0000
  C   C3        1.0  0.02157  0.48927  0.18230  1.0000
  C   C4        1.0  0.02230  0.48959  0.27682  1.0000
  C   C5        1.0  0.04763  0.48257  0.31981  1.0000
  C   C6        1.0  0.07195  0.47632  0.27078  1.0000
  C   C7        1.0  0.06973  0.47485  0.17728  1.0000
  C   C8        1.0  0.04456  0.48097  0.13353  1.0000
  C   C9        1.0  0.95180  0.51627  0.13292  1.0000
  C   C10       1.0  0.92657  0.52238  0.17636  1.0000
  C   C11       1.0  0.92428  0.52100  0.26986  1.0000
  C   C12       1.0  0.94863  0.51489  0.31920  1.0000
  H   H1        1.0  0.04979  0.56500  0.27420  1.0000
  H   H2        1.0  0.94643  0.43244  0.27420  1.0000
  H   H3        1.0  0.08726  0.47064  0.14016  1.0000
  H   H4        1.0  0.04433  0.48097  0.06547  1.0000
  H   H5        1.0  0.95212  0.51626  0.06486  1.0000
  H   H6        1.0  0.90909  0.52658  0.13901  1.0000
  C   C13       1.0  0.99820  0.49865  0.13062  1.0000
  H   H7        1.0  0.01537  0.52155  0.08801  1.0000
  H   H8        1.0  0.98107  0.47572  0.08807  1.0000
  C   C14       1.0  0.89523  0.52165  0.31173  1.0000
  C   C15       1.0  0.10097  0.47574  0.31298  1.0000
  O   O1        1.0  0.09303  0.64776  0.30807  1.0000
  O   O2        1.0  0.90310  0.34977  0.30782  1.0000
  C   C16       1.0  0.48894  0.46535  0.27679  1.0000
  C   C17       1.0  0.48862  0.46574  0.18227  1.0000
  C   C18       1.0  0.50742  0.53130  0.18184  1.0000
  C   C19       1.0  0.50720  0.53190  0.27636  1.0000
  C   C20       1.0  0.51429  0.56435  0.31898  1.0000
  C   C21       1.0  0.52040  0.59479  0.26956  1.0000
  C   C22       1.0  0.52179  0.59385  0.17607  1.0000
  C   C23       1.0  0.51564  0.56249  0.13270  1.0000
  C   C24       1.0  0.48034  0.43444  0.13356  1.0000
  C   C25       1.0  0.47421  0.40316  0.17736  1.0000
  C   C26       1.0  0.47569  0.40243  0.27087  1.0000
  C   C27       1.0  0.48189  0.43300  0.31985  1.0000
  H   H9        1.0  0.43182  0.48414  0.27395  1.0000
  H   H10       1.0  0.56437  0.51328  0.27428  1.0000
  H   H11       1.0  0.52596  0.61552  0.13865  1.0000
  H   H12       1.0  0.51562  0.56213  0.06465  1.0000
  H   H13       1.0  0.48029  0.43464  0.06550  1.0000
  H   H14       1.0  0.46998  0.38140  0.14028  1.0000
  C   C28       1.0  0.49800  0.49846  0.13054  1.0000
  H   H15       1.0  0.47506  0.49266  0.08799  1.0000
  H   H16       1.0  0.52089  0.50418  0.08793  1.0000
  C   C29       1.0  0.47511  0.37285  0.31314  1.0000
  C   C30       1.0  0.52102  0.62450  0.31125  1.0000
  O   O3        1.0  0.34917  0.44483  0.30723  1.0000
  O   O4        1.0  0.64676  0.55237  0.30675  1.0000
  C   C31       1.0  0.53137  0.02287  0.27661  1.0000
  C   C32       1.0  0.53089  0.02207  0.18208  1.0000
  C   C33       1.0  0.46532  0.97530  0.18206  1.0000
  C   C34       1.0  0.46481  0.97456  0.27657  1.0000
  C   C35       1.0  0.43241  0.94921  0.31939  1.0000
  C   C36       1.0  0.40192  0.92487  0.27017  1.0000
  C   C37       1.0  0.40277  0.92712  0.17667  1.0000
  C   C38       1.0  0.43410  0.95228  0.13310  1.0000
  C   C39       1.0  0.56212  0.04507  0.13316  1.0000
  C   C40       1.0  0.59344  0.07027  0.17673  1.0000
  C   C41       1.0  0.59424  0.07257  0.27021  1.0000
  C   C42       1.0  0.56376  0.04821  0.31945  1.0000
  H   H17       1.0  0.51272  0.94704  0.27453  1.0000
  H   H18       1.0  0.48356  0.05044  0.27374  1.0000
  H   H19       1.0  0.38108  0.90959  0.13939  1.0000
  H   H20       1.0  0.43439  0.95257  0.06504  1.0000
  H   H21       1.0  0.56186  0.04474  0.06509  1.0000
  H   H22       1.0  0.61514  0.08779  0.13946  1.0000
  C   C43       1.0  0.49811  0.99867  0.13055  1.0000
  H   H23       1.0  0.50389  0.98152  0.08803  1.0000
  H   H24       1.0  0.49235  0.01581  0.08791  1.0000
  C   C44       1.0  0.62386  0.10167  0.31211  1.0000
  C   C45       1.0  0.37228  0.89578  0.31204  1.0000
  O   O5        1.0  0.55148  0.90374  0.30572  1.0000
  O   O6        1.0  0.44415  0.09382  0.30720  1.0000
  C   C46       1.0  0.31058  0.48562  0.27946  1.0000
  C   C47       1.0  0.27767  0.48477  0.26845  1.0000
  C   C48       1.0  0.23071  0.49690  0.32521  1.0000
  C   C49       1.0  0.22390  0.51014  0.24588  1.0000
  C   C50       1.0  0.19201  0.51122  0.23527  1.0000
  C   C51       1.0  0.16556  0.49861  0.30278  1.0000
  H   H25       1.0  0.24250  0.51999  0.19579  1.0000
  H   H26       1.0  0.18803  0.52106  0.17704  1.0000
  H   H27       1.0  0.32032  0.47750  0.22792  1.0000
  H   H28       1.0  0.26396  0.47500  0.21006  1.0000
  N   N1        1.0  0.13513  0.50064  0.28899  1.0000
  H   H29       1.0  0.13792  0.52041  0.25121  1.0000
  C   C52       1.0  0.51099  0.82436  0.27994  1.0000
  C   C53       1.0  0.51180  0.79228  0.26855  1.0000
  C   C54       1.0  0.49979  0.73316  0.32481  1.0000
  C   C55       1.0  0.48671  0.71332  0.24517  1.0000
  C   C56       1.0  0.48574  0.68041  0.23403  1.0000
  C   C57       1.0  0.49827  0.66641  0.30135  1.0000
  H   H30       1.0  0.47693  0.72217  0.19516  1.0000
  H   H31       1.0  0.47605  0.66679  0.17550  1.0000
  H   H32       1.0  0.51898  0.84221  0.22840  1.0000
  H   H33       1.0  0.52146  0.78839  0.20993  1.0000
  N   N2        1.0  0.49640  0.63406  0.28674  1.0000
  H   H34       1.0  0.47692  0.61735  0.24785  1.0000
  C   C58       1.0  0.17232  0.68616  0.27973  1.0000
  C   C59       1.0  0.20440  0.71906  0.26866  1.0000
  C   C60       1.0  0.26356  0.76597  0.32513  1.0000
  C   C61       1.0  0.28343  0.77277  0.24553  1.0000
  C   C62       1.0  0.31637  0.80467  0.23459  1.0000
  C   C63       1.0  0.33036  0.83113  0.30207  1.0000
  H   H35       1.0  0.27457  0.75418  0.19541  1.0000
  H   H36       1.0  0.33003  0.80865  0.17610  1.0000
  H   H37       1.0  0.15443  0.67643  0.22824  1.0000
  H   H38       1.0  0.20829  0.73277  0.21030  1.0000
  N   N3        1.0  0.36276  0.86159  0.28770  1.0000
  H   H39       1.0  0.37951  0.85881  0.24903  1.0000
  C   C64       1.0  0.68543  0.51170  0.27968  1.0000
  C   C65       1.0  0.71833  0.51254  0.26842  1.0000
  C   C66       1.0  0.76540  0.50049  0.32483  1.0000
  C   C67       1.0  0.77216  0.48735  0.24529  1.0000
  C   C68       1.0  0.80408  0.48634  0.23430  1.0000
  C   C69       1.0  0.83059  0.49891  0.30165  1.0000
  H   H40       1.0  0.75353  0.47754  0.19526  1.0000
  H   H41       1.0  0.80802  0.47660  0.17587  1.0000
  H   H42       1.0  0.67560  0.51973  0.22814  1.0000
  H   H43       1.0  0.73194  0.52225  0.20989  1.0000
  N   N4        1.0  0.86105  0.49698  0.28729  1.0000
  H   H44       1.0  0.85826  0.47740  0.24877  1.0000
  C   C70       1.0  0.48506  0.17315  0.27913  1.0000
  C   C71       1.0  0.48419  0.20522  0.26822  1.0000
  C   C72       1.0  0.49628  0.26427  0.32515  1.0000
  C   C73       1.0  0.50955  0.28435  0.24590  1.0000
  C   C74       1.0  0.51063  0.31733  0.23536  1.0000
  C   C75       1.0  0.49798  0.33112  0.30288  1.0000
  H   H45       1.0  0.51942  0.27563  0.19580  1.0000
  H   H46       1.0  0.52049  0.33117  0.17718  1.0000
  H   H47       1.0  0.47697  0.15532  0.22752  1.0000
  H   H48       1.0  0.47444  0.20917  0.20984  1.0000
  N   N5        1.0  0.50001  0.36359  0.28917  1.0000
  H   H49       1.0  0.51979  0.38059  0.25146  1.0000
  C   C76       1.0  0.82379  0.31132  0.27972  1.0000
  C   C77       1.0  0.79172  0.27842  0.26864  1.0000
  C   C78       1.0  0.73257  0.23150  0.32512  1.0000
  C   C79       1.0  0.71269  0.22469  0.24551  1.0000
  C   C80       1.0  0.67976  0.19277  0.23457  1.0000
  C   C81       1.0  0.66577  0.16632  0.30205  1.0000
  H   H50       1.0  0.72155  0.24327  0.19538  1.0000
  H   H51       1.0  0.66610  0.18879  0.17607  1.0000
  H   H52       1.0  0.84168  0.32106  0.22822  1.0000
  H   H53       1.0  0.78783  0.26471  0.21026  1.0000
  N   N6        1.0  0.63338  0.13585  0.28768  1.0000
  H   H54       1.0  0.61663  0.13862  0.24894  1.0000
  C   C82       1.0  0.97394  0.46546  0.38492  1.0000
  C   C83       1.0  0.97468  0.46596  0.47943  1.0000
  C   C84       1.0  0.02144  0.53153  0.47943  1.0000
  C   C85       1.0  0.02225  0.53200  0.38491  1.0000
  C   C86       1.0  0.04442  0.56279  0.52834  1.0000
  C   C87       1.0  0.06961  0.59411  0.48473  1.0000
  C   C88       1.0  0.07188  0.59491  0.39124  1.0000
  C   C89       1.0  0.04761  0.56437  0.34206  1.0000
  C   C90       1.0  0.94862  0.43306  0.34206  1.0000
  C   C91       1.0  0.92426  0.40257  0.39123  1.0000
  C   C92       1.0  0.92649  0.40340  0.48473  1.0000
  C   C93       1.0  0.95168  0.43471  0.52834  1.0000
  H   H55       1.0  0.90893  0.38169  0.52195  1.0000
  H   H56       1.0  0.95191  0.43500  0.59640  1.0000
  H   H57       1.0  0.04410  0.56253  0.59639  1.0000
  H   H58       1.0  0.08709  0.61585  0.52194  1.0000
  H   H59       1.0  0.04977  0.48412  0.38768  1.0000
  H   H60       1.0  0.94642  0.51337  0.38705  1.0000
  C   C94       1.0  0.99812  0.49872  0.33079  1.0000
  C   C95       1.0  0.99805  0.49875  0.53096  1.0000
  H   H61       1.0  0.98088  0.50451  0.57348  1.0000
  H   H62       1.0  0.01519  0.49299  0.57359  1.0000
  C   C96       1.0  0.10090  0.62453  0.34914  1.0000
  C   C97       1.0  0.89522  0.37295  0.34912  1.0000
  O   O7        1.0  0.09314  0.44478  0.35476  1.0000
  O   O8        1.0  0.90312  0.55210  0.35615  1.0000
  C   C98       1.0  0.53132  0.50781  0.38490  1.0000
  C   C99       1.0  0.53081  0.50811  0.47942  1.0000
  C   C100      1.0  0.46525  0.48937  0.47926  1.0000
  C   C101      1.0  0.46479  0.48963  0.38474  1.0000
  C   C102      1.0  0.43400  0.48118  0.52810  1.0000
  C   C103      1.0  0.40271  0.47505  0.48442  1.0000
  C   C104      1.0  0.40191  0.47646  0.39091  1.0000
  C   C105      1.0  0.43242  0.48257  0.34180  1.0000
  C   C106      1.0  0.56371  0.51482  0.34214  1.0000
  C   C107      1.0  0.59421  0.52102  0.39141  1.0000
  C   C108      1.0  0.59336  0.52245  0.48490  1.0000
  C   C109      1.0  0.56203  0.51632  0.52841  1.0000
  H   H63       1.0  0.61507  0.52666  0.52218  1.0000
  H   H64       1.0  0.56174  0.51638  0.59647  1.0000
  H   H65       1.0  0.43425  0.48114  0.59615  1.0000
  H   H66       1.0  0.38098  0.47085  0.52157  1.0000
  H   H67       1.0  0.51276  0.56505  0.38683  1.0000
  H   H68       1.0  0.48347  0.43243  0.38771  1.0000
  C   C110      1.0  0.49807  0.49868  0.33070  1.0000
  C   C111      1.0  0.49801  0.49874  0.53086  1.0000
  H   H69       1.0  0.49222  0.47582  0.57347  1.0000
  H   H70       1.0  0.50378  0.52167  0.57342  1.0000
  C   C112      1.0  0.37230  0.47587  0.34871  1.0000
  C   C113      1.0  0.62384  0.52158  0.34948  1.0000
  O   O9        1.0  0.55121  0.64682  0.35688  1.0000
  O   O10       1.0  0.44414  0.34970  0.35482  1.0000
  C   C114      1.0  0.48895  0.02294  0.38464  1.0000
  C   C115      1.0  0.48861  0.02220  0.47916  1.0000
  C   C116      1.0  0.50738  0.97542  0.47955  1.0000
  C   C117      1.0  0.50716  0.97461  0.38503  1.0000
  C   C118      1.0  0.51558  0.95243  0.52867  1.0000
  C   C119      1.0  0.52173  0.92722  0.48527  1.0000
  C   C120      1.0  0.52033  0.92491  0.39178  1.0000
  C   C121      1.0  0.51423  0.94925  0.34238  1.0000
  C   C122      1.0  0.48193  0.04826  0.34159  1.0000
  C   C123      1.0  0.47575  0.07263  0.39061  1.0000
  C   C124      1.0  0.47427  0.07042  0.48411  1.0000
  C   C125      1.0  0.48033  0.04522  0.52789  1.0000
  H   H71       1.0  0.47008  0.08797  0.52121  1.0000
  H   H72       1.0  0.48032  0.04500  0.59595  1.0000
  H   H73       1.0  0.51556  0.95276  0.59673  1.0000
  H   H74       1.0  0.52590  0.90972  0.52265  1.0000
  H   H75       1.0  0.43176  0.94706  0.38725  1.0000
  H   H76       1.0  0.56436  0.05045  0.38729  1.0000
  C   C126      1.0  0.49808  0.99874  0.33071  1.0000
  C   C127      1.0  0.49797  0.99884  0.53088  1.0000
  H   H77       1.0  0.52087  0.01601  0.57349  1.0000
  H   H78       1.0  0.47503  0.98171  0.57343  1.0000
  C   C128      1.0  0.52099  0.89587  0.34995  1.0000
  C   C129      1.0  0.47523  0.10167  0.34837  1.0000
  O   O11       1.0  0.34977  0.90363  0.35686  1.0000
  O   O12       1.0  0.64637  0.09384  0.35700  1.0000
  C   C130      1.0  0.33044  0.49860  0.35909  1.0000
  C   C131      1.0  0.26359  0.49690  0.33666  1.0000
  C   C132      1.0  0.28369  0.51024  0.41587  1.0000
  C   C133      1.0  0.31667  0.51133  0.42648  1.0000
  H   H79       1.0  0.27498  0.52017  0.46587  1.0000
  H   H80       1.0  0.33052  0.52124  0.48463  1.0000
  C   C134      1.0  0.17248  0.48571  0.38250  1.0000
  C   C135      1.0  0.20455  0.48488  0.39352  1.0000
  H   H81       1.0  0.15466  0.47769  0.43413  1.0000
  H   H82       1.0  0.20852  0.47518  0.45199  1.0000
  N   N7        1.0  0.36292  0.50065  0.37286  1.0000
  H   H83       1.0  0.37990  0.52047  0.41052  1.0000
  C   C136      1.0  0.49823  0.83124  0.35992  1.0000
  C   C137      1.0  0.49980  0.76604  0.33664  1.0000
  C   C138      1.0  0.48662  0.77277  0.41616  1.0000
  C   C139      1.0  0.48562  0.80469  0.42720  1.0000
  H   H84       1.0  0.47678  0.75411  0.46613  1.0000
  H   H85       1.0  0.47585  0.80861  0.48562  1.0000
  C   C140      1.0  0.51094  0.68599  0.38145  1.0000
  C   C141      1.0  0.51170  0.71885  0.39296  1.0000
  H   H86       1.0  0.51886  0.67609  0.43303  1.0000
  H   H87       1.0  0.52130  0.73237  0.45166  1.0000
  N   N8        1.0  0.49627  0.86169  0.37428  1.0000
  H   H88       1.0  0.47669  0.85890  0.41275  1.0000
  C   C142      1.0  0.16549  0.66629  0.35933  1.0000
  C   C143      1.0  0.23065  0.73311  0.33674  1.0000
  C   C144      1.0  0.22394  0.71301  0.41593  1.0000
  C   C145      1.0  0.19203  0.68004  0.42661  1.0000
  H   H89       1.0  0.24261  0.72169  0.46584  1.0000
  H   H90       1.0  0.18812  0.66617  0.48473  1.0000
  C   C146      1.0  0.31074  0.82420  0.38211  1.0000
  C   C147      1.0  0.27785  0.79212  0.39344  1.0000
  H   H91       1.0  0.32064  0.84199  0.43376  1.0000
  H   H92       1.0  0.26431  0.78815  0.45211  1.0000
  N   N9        1.0  0.13507  0.63382  0.37311  1.0000
  H   H93       1.0  0.13787  0.61680  0.41067  1.0000
  C   C148      1.0  0.66571  0.49884  0.35952  1.0000
  C   C149      1.0  0.73252  0.50050  0.33655  1.0000
  C   C150      1.0  0.71254  0.48725  0.41596  1.0000
  C   C151      1.0  0.67959  0.48619  0.42684  1.0000
  H   H94       1.0  0.72132  0.47737  0.46592  1.0000
  H   H95       1.0  0.66583  0.47635  0.48515  1.0000
  C   C152      1.0  0.82369  0.51166  0.38163  1.0000
  C   C153      1.0  0.79160  0.51245  0.39300  1.0000
  H   H96       1.0  0.84152  0.51962  0.43322  1.0000
  H   H97       1.0  0.78768  0.52208  0.45163  1.0000
  N   N10       1.0  0.63326  0.49681  0.37361  1.0000
  H   H98       1.0  0.61638  0.47713  0.41174  1.0000
  C   C154      1.0  0.49802  0.16624  0.35874  1.0000
  C   C155      1.0  0.49628  0.23138  0.33652  1.0000
  C   C156      1.0  0.50961  0.22459  0.41572  1.0000
  C   C157      1.0  0.51071  0.19270  0.42622  1.0000
  H   H99       1.0  0.51951  0.24320  0.46578  1.0000
  H   H100      1.0  0.52061  0.18874  0.48436  1.0000
  C   C158      1.0  0.48504  0.31127  0.38253  1.0000
  C   C159      1.0  0.48422  0.27836  0.39348  1.0000
  H   H101      1.0  0.47699  0.32103  0.43417  1.0000
  H   H102      1.0  0.47449  0.26465  0.45190  1.0000
  N   N11       1.0  0.50010  0.13583  0.37238  1.0000
  H   H103      1.0  0.51991  0.13862  0.40998  1.0000
  C   C160      1.0  0.83064  0.33118  0.35933  1.0000
  C   C161      1.0  0.76546  0.26436  0.33673  1.0000
  C   C162      1.0  0.77218  0.28445  0.41593  1.0000
  C   C163      1.0  0.80409  0.31742  0.42662  1.0000
  H   H104      1.0  0.75351  0.27576  0.46585  1.0000
  H   H105      1.0  0.80800  0.33128  0.48475  1.0000
  C   C164      1.0  0.68539  0.17327  0.38211  1.0000
  C   C165      1.0  0.71827  0.20535  0.39344  1.0000
  H   H106      1.0  0.67548  0.15548  0.43377  1.0000
  H   H107      1.0  0.73181  0.20932  0.45211  1.0000
  N   N12       1.0  0.86106  0.36365  0.37314  1.0000
  H   H108      1.0  0.85825  0.38065  0.41076  1.0000
