data_image0
_chemical_formula_structural       C10H6C6H2C2H2C10H6C6H2C2H2C3HNO2NC3HNO2NC3HNO2NC8H7CHC8H7CHC3HNO2NC3HNO2NC3HNO2N
_chemical_formula_sum              "C72 H42 N12 O12"
_cell_length_a       37.1862
_cell_length_b       37.1564
_cell_length_c       14.4247
_cell_angle_alpha    90
_cell_angle_beta     90
_cell_angle_gamma    120.018

_space_group_name_H-M_alt    "P 1"
_space_group_IT_number       1

loop_
  _space_group_symop_operation_xyz
  'x, y, z'

loop_
  _atom_site_type_symbol
  _atom_site_label
  _atom_site_symmetry_multiplicity
  _atom_site_fract_x
  _atom_site_fract_y
  _atom_site_fract_z
  _atom_site_occupancy
  C   C1        1.0  0.27472  0.64835  0.37082  1.0000
  C   C2        1.0  0.40183  0.63639  0.36533  1.0000
  C   C3        1.0  0.18594  0.60933  0.35160  1.0000
  C   C4        1.0  0.21304  0.64560  0.30099  1.0000
  C   C5        1.0  0.25642  0.66473  0.31055  1.0000
  C   C6        1.0  0.40472  0.80174  0.33499  1.0000
  C   C7        1.0  0.43003  0.84535  0.33888  1.0000
  C   C8        1.0  0.44082  0.58658  0.34548  1.0000
  C   C9        1.0  0.40617  0.57916  0.29063  1.0000
  C   C10       1.0  0.38709  0.60346  0.30041  1.0000
  H   H1        1.0  0.20144  0.65846  0.25560  1.0000
  H   H2        1.0  0.27461  0.69029  0.27068  1.0000
  H   H3        1.0  0.37985  0.78941  0.29083  1.0000
  H   H4        1.0  0.42230  0.86304  0.29825  1.0000
  H   H5        1.0  0.39444  0.55591  0.24212  1.0000
  H   H6        1.0  0.36270  0.59732  0.25772  1.0000
  C   C11       1.0  0.38252  0.66140  0.37379  1.0000
  C   C12       1.0  0.40671  0.70528  0.37927  1.0000
  C   C13       1.0  0.38854  0.73087  0.38397  1.0000
  C   C14       1.0  0.34464  0.71114  0.38280  1.0000
  C   C15       1.0  0.31904  0.66739  0.37712  1.0000
  C   C16       1.0  0.33872  0.64320  0.37327  1.0000
  H   H7        1.0  0.43837  0.71903  0.37577  1.0000
  H   H8        1.0  0.32070  0.61157  0.36826  1.0000
  C   C17       1.0  0.45926  0.56217  0.33222  1.0000
  C   C18       1.0  0.14314  0.59075  0.33795  1.0000
  H   H9        1.0  0.45006  0.54294  0.27817  1.0000
  H   H10       1.0  0.13317  0.60011  0.28410  1.0000
  C   C19       1.0  0.78556  0.39122  0.36625  1.0000
  C   C20       1.0  0.65879  0.40404  0.36129  1.0000
  C   C21       1.0  0.87453  0.42861  0.35656  1.0000
  C   C22       1.0  0.84795  0.39280  0.30399  1.0000
  C   C23       1.0  0.80448  0.37453  0.30875  1.0000
  C   C24       1.0  0.65494  0.23766  0.33178  1.0000
  C   C25       1.0  0.63018  0.19411  0.33992  1.0000
  C   C26       1.0  0.62130  0.45556  0.35044  1.0000
  C   C27       1.0  0.65551  0.46318  0.29377  1.0000
  C   C28       1.0  0.67380  0.43799  0.29905  1.0000
  H   H11       1.0  0.86001  0.37959  0.26091  1.0000
  H   H12       1.0  0.78672  0.34913  0.26809  1.0000
  H   H13       1.0  0.67930  0.24945  0.28623  1.0000
  H   H14       1.0  0.63787  0.17587  0.30120  1.0000
  H   H15       1.0  0.66755  0.48729  0.24740  1.0000
  H   H16       1.0  0.69803  0.44446  0.25552  1.0000
  C   C29       1.0  0.67788  0.37873  0.36702  1.0000
  C   C30       1.0  0.65355  0.33485  0.37242  1.0000
  C   C31       1.0  0.67155  0.30911  0.37695  1.0000
  C   C32       1.0  0.71543  0.32866  0.37560  1.0000
  C   C33       1.0  0.74119  0.37239  0.37000  1.0000
  C   C34       1.0  0.72166  0.39673  0.36628  1.0000
  H   H17       1.0  0.62187  0.32119  0.36982  1.0000
  H   H18       1.0  0.73982  0.42837  0.36211  1.0000
  C   C35       1.0  0.60434  0.48159  0.34373  1.0000
  C   C36       1.0  0.91752  0.44565  0.34994  1.0000
  H   H19       1.0  0.61950  0.50752  0.30638  1.0000
  H   H20       1.0  0.92833  0.43032  0.31336  1.0000
  C   C37       1.0  0.55068  0.49594  0.37956  1.0000
  C   C38       1.0  0.53898  0.50704  0.29543  1.0000
  C   C39       1.0  0.51772  0.52973  0.29860  1.0000
  H   H21       1.0  0.51005  0.53810  0.23741  1.0000
  N   N1        1.0  0.54800  0.49454  0.20997  1.0000
  O   O1        1.0  0.57098  0.52533  0.16004  1.0000
  O   O2        1.0  0.51541  0.47118  0.16559  1.0000
  N   N2        1.0  0.57004  0.47386  0.38276  1.0000
  C   C40       1.0  0.55055  0.06414  0.36250  1.0000
  C   C41       1.0  0.53961  0.04120  0.27865  1.0000
  C   C42       1.0  0.51685  0.99716  0.28173  1.0000
  H   H22       1.0  0.50875  0.98082  0.22080  1.0000
  N   N3        1.0  0.55120  0.06295  0.19331  1.0000
  O   O3        1.0  0.51991  0.05500  0.14514  1.0000
  O   O4        1.0  0.57423  0.05394  0.14696  1.0000
  N   N4        1.0  0.57200  0.10576  0.35921  1.0000
  C   C43       1.0  0.98551  0.49947  0.38503  1.0000
  C   C44       1.0  0.00828  0.51118  0.30089  1.0000
  C   C45       1.0  0.05223  0.53233  0.30402  1.0000
  H   H23       1.0  0.06826  0.54006  0.24283  1.0000
  N   N5        1.0  0.98673  0.50225  0.21549  1.0000
  O   O5        1.0  0.99439  0.47921  0.16541  1.0000
  O   O6        1.0  0.99608  0.53491  0.17121  1.0000
  N   N6        1.0  0.94409  0.48018  0.38827  1.0000
  C   C46       1.0  0.41386  0.77531  0.38846  1.0000
  C   C47       1.0  0.24766  0.61202  0.42142  1.0000
  C   C48       1.0  0.20414  0.59295  0.41228  1.0000
  C   C49       1.0  0.46559  0.86440  0.39663  1.0000
  C   C50       1.0  0.47456  0.83798  0.45046  1.0000
  C   C51       1.0  0.44929  0.79445  0.44645  1.0000
  C   C52       1.0  0.43660  0.64397  0.41998  1.0000
  C   C53       1.0  0.45568  0.61953  0.41046  1.0000
  H   H24       1.0  0.18588  0.56660  0.44977  1.0000
  H   H25       1.0  0.45684  0.77680  0.48773  1.0000
  H   H26       1.0  0.49975  0.85019  0.49381  1.0000
  H   H27       1.0  0.44814  0.66717  0.46849  1.0000
  H   H28       1.0  0.48077  0.62630  0.45136  1.0000
  H   H29       1.0  0.33091  0.72903  0.38813  1.0000
  H   H30       1.0  0.25945  0.59920  0.46626  1.0000
  C   C54       1.0  0.49158  0.90745  0.40244  1.0000
  H   H31       1.0  0.51771  0.91840  0.43909  1.0000
  C   C55       1.0  0.64621  0.26476  0.38382  1.0000
  C   C56       1.0  0.81211  0.42718  0.41846  1.0000
  C   C57       1.0  0.85568  0.44546  0.41392  1.0000
  C   C58       1.0  0.59571  0.17585  0.40088  1.0000
  C   C59       1.0  0.58705  0.20295  0.45293  1.0000
  C   C60       1.0  0.61167  0.24640  0.44445  1.0000
  C   C61       1.0  0.62436  0.39622  0.41751  1.0000
  C   C62       1.0  0.60600  0.42143  0.41232  1.0000
  H   H32       1.0  0.87349  0.47121  0.45355  1.0000
  H   H33       1.0  0.60458  0.26458  0.48504  1.0000
  H   H34       1.0  0.56266  0.19130  0.49849  1.0000
  H   H35       1.0  0.61276  0.37245  0.46463  1.0000
  H   H36       1.0  0.58151  0.41476  0.45516  1.0000
  H   H37       1.0  0.72902  0.31066  0.38178  1.0000
  H   H38       1.0  0.79988  0.44007  0.46193  1.0000
  C   C63       1.0  0.57108  0.13294  0.41314  1.0000
  H   H39       1.0  0.55107  0.12276  0.46576  1.0000
  C   C64       1.0  0.50687  0.54086  0.38358  1.0000
  C   C65       1.0  0.51859  0.52968  0.46743  1.0000
  C   C66       1.0  0.53987  0.50694  0.46440  1.0000
  H   H40       1.0  0.54792  0.49868  0.52537  1.0000
  N   N7        1.0  0.50818  0.54100  0.55280  1.0000
  O   O7        1.0  0.48470  0.50955  0.60042  1.0000
  O   O8        1.0  0.54008  0.56394  0.59969  1.0000
  N   N8        1.0  0.48666  0.56225  0.38707  1.0000
  C   C67       1.0  0.50563  0.97537  0.36661  1.0000
  C   C68       1.0  0.51654  0.99819  0.45071  1.0000
  C   C69       1.0  0.53924  0.04217  0.44750  1.0000
  H   H41       1.0  0.54747  0.05825  0.50866  1.0000
  N   N9        1.0  0.50390  0.97667  0.53615  1.0000
  O   O9        1.0  0.53457  0.98446  0.58638  1.0000
  O   O10       1.0  0.48049  0.98593  0.58020  1.0000
  N   N10       1.0  0.48357  0.93390  0.36369  1.0000
  C   C70       1.0  0.07421  0.54301  0.38901  1.0000
  C   C71       1.0  0.05131  0.53123  0.47287  1.0000
  C   C72       1.0  0.00731  0.51008  0.46987  1.0000
  H   H42       1.0  0.99102  0.50199  0.53084  1.0000
  N   N11       1.0  0.07304  0.54145  0.55822  1.0000
  O   O11       1.0  0.06521  0.56495  0.60613  1.0000
  O   O12       1.0  0.06394  0.50942  0.60480  1.0000
  N   N12       1.0  0.11580  0.56322  0.39261  1.0000
