data_image0
_chemical_formula_structural       C6H9C6H9C3H2C2H2NHC3H2C2H2NHC3H2C2H2NHC18H9CHCHCHC18H9CHCHCHC7H3NH2NHC7H3NH2NHC7H3NH2NH
_chemical_formula_sum              "C90 H75 N9"
_cell_length_a       44.382
_cell_length_b       44.3832
_cell_length_c       15.02
_cell_angle_alpha    90
_cell_angle_beta     90
_cell_angle_gamma    120

_space_group_name_H-M_alt    "P 1"
_space_group_IT_number       1

loop_
  _space_group_symop_operation_xyz
  'x, y, z'

loop_
  _atom_site_type_symbol
  _atom_site_label
  _atom_site_symmetry_multiplicity
  _atom_site_fract_x
  _atom_site_fract_y
  _atom_site_fract_z
  _atom_site_occupancy
  C   C1        1.0  0.20207  0.58472  0.31885  1.0000
  C   C2        1.0  0.23865  0.60284  0.31643  1.0000
  C   C3        1.0  0.36287  0.75970  0.31642  1.0000
  C   C4        1.0  0.38133  0.79627  0.31884  1.0000
  C   C5        1.0  0.39550  0.63547  0.31638  1.0000
  C   C6        1.0  0.41363  0.61703  0.31882  1.0000
  H   H1        1.0  0.37511  0.80937  0.27322  1.0000
  H   H2        1.0  0.34401  0.74749  0.26901  1.0000
  H   H3        1.0  0.40217  0.65435  0.26900  1.0000
  H   H4        1.0  0.43295  0.62324  0.27321  1.0000
  H   H5        1.0  0.25086  0.59618  0.26902  1.0000
  H   H6        1.0  0.18897  0.56540  0.27323  1.0000
  H   H7        1.0  0.13712  0.59360  0.37400  1.0000
  H   H8        1.0  0.45516  0.86122  0.37399  1.0000
  H   H9        1.0  0.40476  0.54321  0.37402  1.0000
  C   C7        1.0  0.79528  0.40840  0.30141  1.0000
  C   C8        1.0  0.75902  0.39321  0.30983  1.0000
  C   C9        1.0  0.63286  0.23931  0.30985  1.0000
  C   C10       1.0  0.61178  0.20305  0.30141  1.0000
  C   C11       1.0  0.60513  0.36547  0.30981  1.0000
  C   C12       1.0  0.58992  0.38654  0.30142  1.0000
  H   H10       1.0  0.61948  0.19048  0.25804  1.0000
  H   H11       1.0  0.65459  0.25165  0.27075  1.0000
  H   H12       1.0  0.59570  0.34372  0.27077  1.0000
  H   H13       1.0  0.56964  0.37882  0.25809  1.0000
  H   H14       1.0  0.74668  0.40262  0.27074  1.0000
  H   H15       1.0  0.80785  0.42867  0.25806  1.0000
  H   H16       1.0  0.85645  0.38921  0.31870  1.0000
  H   H17       1.0  0.53141  0.14189  0.31862  1.0000
  H   H18       1.0  0.60911  0.46689  0.31873  1.0000
  C   C13       1.0  0.54151  0.45040  0.28815  1.0000
  C   C14       1.0  0.53996  0.50323  0.25271  1.0000
  C   C15       1.0  0.55620  0.48313  0.24613  1.0000
  H   H19       1.0  0.55141  0.52708  0.22230  1.0000
  H   H20       1.0  0.57882  0.49244  0.21077  1.0000
  C   C16       1.0  0.46505  0.54187  0.24397  1.0000
  C   C17       1.0  0.47844  0.51918  0.23653  1.0000
  H   H21       1.0  0.45296  0.54546  0.19036  1.0000
  H   H22       1.0  0.47585  0.50660  0.17744  1.0000
  N   N1        1.0  0.55729  0.42954  0.28433  1.0000
  H   H23       1.0  0.56349  0.42790  0.21928  1.0000
  C   C18       1.0  0.54792  0.09079  0.28810  1.0000
  C   C19       1.0  0.49510  0.03638  0.25265  1.0000
  C   C20       1.0  0.51519  0.07273  0.24607  1.0000
  H   H24       1.0  0.47124  0.02397  0.22226  1.0000
  H   H25       1.0  0.50587  0.08603  0.21071  1.0000
  C   C21       1.0  0.45649  0.92285  0.24396  1.0000
  C   C22       1.0  0.47917  0.95893  0.23651  1.0000
  H   H26       1.0  0.45290  0.90717  0.19035  1.0000
  H   H27       1.0  0.49174  0.96892  0.17741  1.0000
  N   N2        1.0  0.56876  0.12742  0.28427  1.0000
  H   H28       1.0  0.57041  0.13526  0.21922  1.0000
  C   C23       1.0  0.90755  0.45681  0.28815  1.0000
  C   C24       1.0  0.96195  0.45838  0.25273  1.0000
  C   C25       1.0  0.92561  0.44213  0.24613  1.0000
  H   H29       1.0  0.97436  0.44693  0.22231  1.0000
  H   H30       1.0  0.91230  0.41952  0.21075  1.0000
  C   C26       1.0  0.07549  0.53329  0.24400  1.0000
  C   C27       1.0  0.03940  0.51989  0.23657  1.0000
  H   H31       1.0  0.09116  0.54537  0.19038  1.0000
  H   H32       1.0  0.02941  0.52246  0.17747  1.0000
  N   N3        1.0  0.87091  0.44102  0.28432  1.0000
  H   H33       1.0  0.86308  0.43482  0.21926  1.0000
  C   C28       1.0  0.35148  0.70305  0.37554  1.0000
  C   C29       1.0  0.31470  0.68485  0.37553  1.0000
  C   C30       1.0  0.29529  0.64809  0.37555  1.0000
  C   C31       1.0  0.31350  0.62952  0.37552  1.0000
  C   C32       1.0  0.35025  0.64687  0.37553  1.0000
  C   C33       1.0  0.36883  0.68365  0.37552  1.0000
  C   C34       1.0  0.25826  0.63013  0.37706  1.0000
  C   C35       1.0  0.24013  0.63887  0.43989  1.0000
  C   C36       1.0  0.20356  0.62061  0.44254  1.0000
  C   C37       1.0  0.18390  0.59306  0.38262  1.0000
  C   C38       1.0  0.37055  0.74009  0.37706  1.0000
  C   C39       1.0  0.40783  0.81444  0.38261  1.0000
  C   C40       1.0  0.41573  0.79478  0.44253  1.0000
  C   C41       1.0  0.39742  0.75822  0.43989  1.0000
  C   C42       1.0  0.36821  0.62779  0.37704  1.0000
  C   C43       1.0  0.40530  0.59053  0.38261  1.0000
  C   C44       1.0  0.37775  0.58263  0.44252  1.0000
  C   C45       1.0  0.35948  0.60092  0.43985  1.0000
  H   H34       1.0  0.43480  0.80705  0.48944  1.0000
  H   H35       1.0  0.40343  0.74494  0.48563  1.0000
  H   H36       1.0  0.34020  0.59493  0.48565  1.0000
  H   H37       1.0  0.37095  0.56357  0.48945  1.0000
  H   H38       1.0  0.19130  0.62741  0.48945  1.0000
  H   H39       1.0  0.25340  0.65816  0.48564  1.0000
  H   H40       1.0  0.30180  0.69860  0.37604  1.0000
  H   H41       1.0  0.39548  0.69654  0.37603  1.0000
  H   H42       1.0  0.29974  0.60287  0.37603  1.0000
  C   C46       1.0  0.14524  0.57457  0.38898  1.0000
  H   H43       1.0  0.13790  0.56595  0.45788  1.0000
  C   C47       1.0  0.42801  0.85310  0.38896  1.0000
  H   H44       1.0  0.42673  0.86044  0.45786  1.0000
  C   C48       1.0  0.42379  0.57035  0.38898  1.0000
  H   H45       1.0  0.43242  0.57164  0.45787  1.0000
  C   C49       1.0  0.64476  0.29558  0.37426  1.0000
  C   C50       1.0  0.68152  0.31219  0.37457  1.0000
  C   C51       1.0  0.70275  0.34884  0.37424  1.0000
  C   C52       1.0  0.68613  0.36898  0.37456  1.0000
  C   C53       1.0  0.64948  0.35357  0.37426  1.0000
  C   C54       1.0  0.62935  0.31681  0.37457  1.0000
  C   C55       1.0  0.73979  0.36490  0.36829  1.0000
  C   C56       1.0  0.75837  0.35240  0.41809  1.0000
  C   C57       1.0  0.79460  0.36732  0.40886  1.0000
  C   C58       1.0  0.81370  0.39550  0.35021  1.0000
  C   C59       1.0  0.62377  0.25854  0.36830  1.0000
  C   C60       1.0  0.58046  0.18463  0.35018  1.0000
  C   C61       1.0  0.57138  0.20373  0.40884  1.0000
  C   C62       1.0  0.59269  0.23996  0.41808  1.0000
  C   C63       1.0  0.63343  0.37455  0.36828  1.0000
  C   C64       1.0  0.60282  0.41785  0.35022  1.0000
  C   C65       1.0  0.63101  0.42693  0.40886  1.0000
  C   C66       1.0  0.64593  0.40563  0.41808  1.0000
  H   H46       1.0  0.54900  0.19129  0.44563  1.0000
  H   H47       1.0  0.58526  0.25264  0.46207  1.0000
  H   H48       1.0  0.66603  0.41305  0.46210  1.0000
  H   H49       1.0  0.64093  0.44931  0.44567  1.0000
  H   H50       1.0  0.80704  0.35739  0.44567  1.0000
  H   H51       1.0  0.74569  0.33230  0.46208  1.0000
  H   H52       1.0  0.69308  0.29722  0.37288  1.0000
  H   H53       1.0  0.60280  0.30524  0.37288  1.0000
  H   H54       1.0  0.70111  0.39553  0.37286  1.0000
  C   C67       1.0  0.85198  0.40995  0.34258  1.0000
  H   H55       1.0  0.86280  0.41711  0.40981  1.0000
  C   C68       1.0  0.55663  0.14636  0.34252  1.0000
  H   H56       1.0  0.55295  0.13553  0.40975  1.0000
  C   C69       1.0  0.58836  0.44167  0.34259  1.0000
  H   H57       1.0  0.58121  0.44534  0.40983  1.0000
  C   C70       1.0  0.51030  0.43809  0.33628  1.0000
  C   C71       1.0  0.49372  0.45815  0.34512  1.0000
  C   C72       1.0  0.50897  0.49123  0.30239  1.0000
  C   C73       1.0  0.49498  0.51363  0.30995  1.0000
  C   C74       1.0  0.49838  0.53155  0.39043  1.0000
  C   C75       1.0  0.48508  0.55431  0.39760  1.0000
  C   C76       1.0  0.46807  0.55944  0.32457  1.0000
  H   H58       1.0  0.51071  0.52831  0.44408  1.0000
  H   H59       1.0  0.48792  0.56722  0.45616  1.0000
  H   H60       1.0  0.49987  0.41430  0.36667  1.0000
  N   N4        1.0  0.46378  0.44486  0.39326  1.0000
  H   H61       1.0  0.45378  0.42209  0.42143  1.0000
  H   H62       1.0  0.45096  0.45718  0.39965  1.0000
  N   N5        1.0  0.45425  0.58198  0.32880  1.0000
  H   H63       1.0  0.47373  0.60632  0.34709  1.0000
  C   C77       1.0  0.56024  0.07190  0.33625  1.0000
  C   C78       1.0  0.54019  0.03526  0.34509  1.0000
  C   C79       1.0  0.50711  0.01741  0.30236  1.0000
  C   C80       1.0  0.48472  0.98101  0.30993  1.0000
  C   C81       1.0  0.46682  0.96650  0.39042  1.0000
  C   C82       1.0  0.44406  0.93044  0.39760  1.0000
  C   C83       1.0  0.43893  0.90830  0.32456  1.0000
  H   H64       1.0  0.47005  0.98207  0.44407  1.0000
  H   H65       1.0  0.43115  0.92037  0.45616  1.0000
  H   H66       1.0  0.58403  0.08527  0.36665  1.0000
  N   N6        1.0  0.55349  0.01862  0.39326  1.0000
  H   H67       1.0  0.57627  0.03139  0.42135  1.0000
  H   H68       1.0  0.54119  0.99347  0.39957  1.0000
  N   N7        1.0  0.41638  0.87193  0.32880  1.0000
  H   H69       1.0  0.39204  0.86708  0.34709  1.0000
  C   C84       1.0  0.92644  0.48801  0.33631  1.0000
  C   C85       1.0  0.96308  0.50460  0.34517  1.0000
  C   C86       1.0  0.98093  0.48935  0.30246  1.0000
  C   C87       1.0  0.01732  0.50336  0.31001  1.0000
  C   C88       1.0  0.03184  0.49998  0.39049  1.0000
  C   C89       1.0  0.06790  0.51328  0.39766  1.0000
  C   C90       1.0  0.09004  0.53028  0.32460  1.0000
  H   H70       1.0  0.01628  0.48765  0.44415  1.0000
  H   H71       1.0  0.07798  0.51045  0.45621  1.0000
  H   H72       1.0  0.91307  0.49843  0.36670  1.0000
  N   N8        1.0  0.97973  0.53453  0.39334  1.0000
  H   H73       1.0  0.96697  0.54457  0.42133  1.0000
  H   H74       1.0  0.00487  0.54739  0.39957  1.0000
  N   N9        1.0  0.12641  0.54411  0.32883  1.0000
  H   H75       1.0  0.13127  0.52463  0.34712  1.0000
