data_image0
_chemical_formula_structural       CHCHC2HNC2HCHCH3NC3NHC4H2C5HCNCNC6H6N2C6H6N2C2HNC6H6N2C6H6N2C3HOHCHC3HOHCHC3H2CHC3H2CHC3H2CHC3H2CHC3H2CHC3H2CHC3H3NC12H5CNC2NHN2C12H5CNC2NHN2C6H4NC12H5CNC2NHN2C12H5CNC2NHN2C3H2CHC3H2CHC3HOHCHC3HOHCHC3HOHCHC3HOHCHC3HOHCHC3HOHCHC4H5NC2OHCHC6HCNC2NHNCH
_chemical_formula_sum              "C198 H126 N36 O9"
_cell_length_a       76.9793
_cell_length_b       76.9794
_cell_length_c       14.9189
_cell_angle_alpha    90
_cell_angle_beta     90
_cell_angle_gamma    120

_space_group_name_H-M_alt    "P 1"
_space_group_IT_number       1

loop_
  _space_group_symop_operation_xyz
  'x, y, z'

loop_
  _atom_site_type_symbol
  _atom_site_label
  _atom_site_symmetry_multiplicity
  _atom_site_fract_x
  _atom_site_fract_y
  _atom_site_fract_z
  _atom_site_occupancy
  C   C1        1.0  0.09027  0.56021  0.33569  1.0000
  H   H1        1.0  0.08278  0.56797  0.34289  1.0000
  C   C2        1.0  0.01804  0.50353  0.26456  1.0000
  H   H2        1.0  0.02791  0.50394  0.21743  1.0000
  C   C3        1.0  0.09067  0.52932  0.31132  1.0000
  C   C4        1.0  0.07956  0.53918  0.32349  1.0000
  H   H3        1.0  0.08340  0.51412  0.30150  1.0000
  N   N1        1.0  0.05958  0.52807  0.31977  1.0000
  C   C5        1.0  0.02515  0.51672  0.33884  1.0000
  C   C6        1.0  0.01080  0.51575  0.40103  1.0000
  H   H4        1.0  0.01526  0.52497  0.45594  1.0000
  C   C7        1.0  0.04544  0.53072  0.35055  1.0000
  H   H5        1.0  0.04907  0.54297  0.38641  1.0000
  C   C8        1.0  0.11142  0.57093  0.33705  1.0000
  H   H6        1.0  0.11847  0.58612  0.34676  1.0000
  H   H7        1.0  0.16412  0.63119  0.31210  1.0000
  H   H8        1.0  0.16810  0.53596  0.27930  1.0000
  N   N2        1.0  0.15486  0.59244  0.33016  1.0000
  C   C9        1.0  0.12271  0.56110  0.32660  1.0000
  C   C10       1.0  0.11180  0.54003  0.31363  1.0000
  C   C11       1.0  0.14417  0.57190  0.33029  1.0000
  N   N3        1.0  0.15473  0.56198  0.33656  1.0000
  H   H9        1.0  0.11912  0.53213  0.30496  1.0000
  C   C12       1.0  0.18735  0.62442  0.33503  1.0000
  C   C13       1.0  0.17922  0.63715  0.32138  1.0000
  C   C14       1.0  0.19168  0.65823  0.31858  1.0000
  C   C15       1.0  0.21259  0.66721  0.33116  1.0000
  H   H10       1.0  0.18538  0.66701  0.30772  1.0000
  H   H11       1.0  0.19061  0.52281  0.28189  1.0000
  C   C16       1.0  0.18704  0.56262  0.35165  1.0000
  C   C17       1.0  0.20847  0.63373  0.34598  1.0000
  C   C18       1.0  0.20593  0.57301  0.39511  1.0000
  C   C19       1.0  0.19477  0.53616  0.31306  1.0000
  C   C20       1.0  0.18148  0.54381  0.31237  1.0000
  H   H12       1.0  0.21059  0.58658  0.42539  1.0000
  C   C21       1.0  0.17506  0.57184  0.34362  1.0000
  N   N4        1.0  0.18454  0.59209  0.34256  1.0000
  C   C22       1.0  0.17526  0.60303  0.33583  1.0000
  N   N5        1.0  0.22458  0.68703  0.32532  1.0000
  C   C23       1.0  0.38238  0.56427  0.33502  1.0000
  C   C24       1.0  0.44659  0.53140  0.33566  1.0000
  C   C25       1.0  0.43587  0.54182  0.33702  1.0000
  C   C26       1.0  0.36965  0.54340  0.32131  1.0000
  C   C27       1.0  0.34857  0.53478  0.31851  1.0000
  C   C28       1.0  0.33959  0.54671  0.33115  1.0000
  H   H13       1.0  0.43884  0.51615  0.34283  1.0000
  H   H14       1.0  0.42068  0.53369  0.34671  1.0000
  H   H15       1.0  0.37562  0.53427  0.31196  1.0000
  H   H16       1.0  0.33979  0.51970  0.30757  1.0000
  H   H17       1.0  0.48403  0.66914  0.28222  1.0000
  H   H18       1.0  0.47086  0.63348  0.27948  1.0000
  N   N6        1.0  0.41436  0.56376  0.33014  1.0000
  N   N7        1.0  0.31977  0.53888  0.32529  1.0000
  C   C29       1.0  0.44249  0.81942  0.33496  1.0000
  C   C30       1.0  0.47538  0.91650  0.33567  1.0000
  C   C31       1.0  0.46496  0.89536  0.33702  1.0000
  C   C32       1.0  0.46336  0.82755  0.32135  1.0000
  C   C33       1.0  0.47198  0.81509  0.31855  1.0000
  C   C34       1.0  0.46004  0.79417  0.33108  1.0000
  H   H19       1.0  0.49063  0.92400  0.34283  1.0000
  H   H20       1.0  0.47309  0.88830  0.34672  1.0000
  H   H21       1.0  0.47249  0.84265  0.31209  1.0000
  H   H22       1.0  0.48707  0.82139  0.30770  1.0000
  H   H23       1.0  0.33764  0.81620  0.28213  1.0000
  H   H24       1.0  0.37330  0.83869  0.27938  1.0000
  N   N8        1.0  0.44301  0.85191  0.33011  1.0000
  N   N9        1.0  0.46788  0.78218  0.32524  1.0000
  C   C35       1.0  0.81681  0.34761  0.31998  1.0000
  C   C36       1.0  0.79576  0.33859  0.32648  1.0000
  H   H25       1.0  0.81746  0.48299  0.28745  1.0000
  N   N10       1.0  0.78389  0.31873  0.32243  1.0000
  C   C37       1.0  0.62538  0.44072  0.33002  1.0000
  C   C38       1.0  0.56125  0.47357  0.31699  1.0000
  C   C39       1.0  0.57189  0.46306  0.31735  1.0000
  C   C40       1.0  0.63809  0.46176  0.32242  1.0000
  C   C41       1.0  0.65918  0.47048  0.31984  1.0000
  C   C42       1.0  0.66819  0.45844  0.32641  1.0000
  H   H26       1.0  0.56911  0.48879  0.30862  1.0000
  H   H27       1.0  0.58710  0.47112  0.30836  1.0000
  H   H28       1.0  0.63210  0.47098  0.31852  1.0000
  H   H29       1.0  0.66795  0.48572  0.31429  1.0000
  H   H30       1.0  0.52379  0.33579  0.28733  1.0000
  H   H31       1.0  0.53681  0.37141  0.28442  1.0000
  N   N11       1.0  0.59336  0.44118  0.32900  1.0000
  N   N12       1.0  0.68805  0.46642  0.32231  1.0000
  C   C43       1.0  0.56600  0.18596  0.33014  1.0000
  C   C44       1.0  0.53319  0.08899  0.31704  1.0000
  C   C45       1.0  0.54370  0.11013  0.31741  1.0000
  C   C46       1.0  0.54496  0.17762  0.32248  1.0000
  C   C47       1.0  0.53623  0.18998  0.31994  1.0000
  C   C48       1.0  0.54826  0.21103  0.32664  1.0000
  H   H32       1.0  0.51798  0.08162  0.30869  1.0000
  H   H33       1.0  0.53563  0.11728  0.30844  1.0000
  H   H34       1.0  0.53575  0.16241  0.31848  1.0000
  H   H35       1.0  0.52099  0.18351  0.31432  1.0000
  H   H36       1.0  0.67096  0.18938  0.28706  1.0000
  H   H37       1.0  0.63534  0.16673  0.28438  1.0000
  N   N13       1.0  0.56556  0.15348  0.32907  1.0000
  N   N14       1.0  0.54028  0.22291  0.32252  1.0000
  C   C49       1.0  0.51810  0.49572  0.31602  1.0000
  C   C50       1.0  0.51699  0.50892  0.25270  1.0000
  C   C51       1.0  0.50329  0.51586  0.26456  1.0000
  H   H38       1.0  0.50288  0.52533  0.21743  1.0000
  O   O1        1.0  0.52924  0.51558  0.17966  1.0000
  H   H39       1.0  0.52273  0.50516  0.13340  1.0000
  C   C52       1.0  0.53235  0.48969  0.30693  1.0000
  H   H40       1.0  0.54534  0.49909  0.27778  1.0000
  C   C53       1.0  0.51107  0.02369  0.31601  1.0000
  C   C54       1.0  0.49786  0.00939  0.25272  1.0000
  C   C55       1.0  0.49092  0.98874  0.26458  1.0000
  H   H41       1.0  0.48144  0.97886  0.21747  1.0000
  O   O2        1.0  0.49118  0.01496  0.17970  1.0000
  H   H42       1.0  0.50160  0.01888  0.13341  1.0000
  C   C56       1.0  0.51710  0.04397  0.30690  1.0000
  H   H43       1.0  0.50768  0.04755  0.27783  1.0000
  C   C57       1.0  0.24900  0.52936  0.33150  1.0000
  C   C58       1.0  0.26133  0.53025  0.25943  1.0000
  C   C59       1.0  0.28073  0.53336  0.27508  1.0000
  H   H44       1.0  0.28966  0.53522  0.22087  1.0000
  H   H45       1.0  0.25676  0.52981  0.19457  1.0000
  C   C60       1.0  0.23108  0.52899  0.31534  1.0000
  H   H46       1.0  0.22206  0.52053  0.26632  1.0000
  C   C61       1.0  0.47744  0.72097  0.33160  1.0000
  C   C62       1.0  0.47649  0.73236  0.25946  1.0000
  C   C63       1.0  0.47335  0.74862  0.27504  1.0000
  H   H47       1.0  0.47144  0.75565  0.22079  1.0000
  H   H48       1.0  0.47688  0.72818  0.19462  1.0000
  C   C64       1.0  0.47785  0.70342  0.31556  1.0000
  H   H49       1.0  0.48617  0.70282  0.26600  1.0000
  C   C65       1.0  0.28580  0.75781  0.33162  1.0000
  C   C66       1.0  0.27442  0.74546  0.25950  1.0000
  C   C67       1.0  0.25814  0.72606  0.27509  1.0000
  H   H50       1.0  0.25114  0.71710  0.22084  1.0000
  H   H51       1.0  0.27861  0.75002  0.19466  1.0000
  C   C68       1.0  0.30336  0.77575  0.31554  1.0000
  H   H52       1.0  0.30397  0.78466  0.26592  1.0000
  C   C69       1.0  0.75880  0.47593  0.33325  1.0000
  C   C70       1.0  0.74676  0.47519  0.26018  1.0000
  C   C71       1.0  0.72725  0.47190  0.27420  1.0000
  H   H53       1.0  0.71853  0.47008  0.21924  1.0000
  H   H54       1.0  0.75161  0.47578  0.19570  1.0000
  C   C72       1.0  0.77685  0.47647  0.31847  1.0000
  H   H55       1.0  0.78594  0.48495  0.26968  1.0000
  C   C73       1.0  0.53084  0.28419  0.33325  1.0000
  C   C74       1.0  0.53159  0.27289  0.26022  1.0000
  C   C75       1.0  0.53485  0.25664  0.27432  1.0000
  H   H56       1.0  0.53669  0.24974  0.21941  1.0000
  H   H57       1.0  0.53103  0.27715  0.19572  1.0000
  C   C76       1.0  0.53031  0.30170  0.31843  1.0000
  H   H58       1.0  0.52186  0.30232  0.26955  1.0000
  C   C77       1.0  0.72259  0.24802  0.33309  1.0000
  C   C78       1.0  0.73395  0.26003  0.26010  1.0000
  C   C79       1.0  0.75021  0.27952  0.27423  1.0000
  H   H59       1.0  0.75715  0.28824  0.21932  1.0000
  H   H60       1.0  0.72972  0.25519  0.19559  1.0000
  C   C80       1.0  0.70504  0.23001  0.31814  1.0000
  H   H61       1.0  0.70451  0.22081  0.27006  1.0000
  C   C81       1.0  0.22083  0.65461  0.34344  1.0000
  C   C82       1.0  0.21900  0.56528  0.39705  1.0000
  C   C83       1.0  0.21378  0.54698  0.35461  1.0000
  H   H62       1.0  0.21537  0.62544  0.35525  1.0000
  H   H63       1.0  0.23601  0.66058  0.34972  1.0000
  H   H64       1.0  0.23268  0.57349  0.42762  1.0000
  N   N15       1.0  0.22774  0.54172  0.35607  1.0000
  C   C84       1.0  0.44570  0.56295  0.32658  1.0000
  C   C85       1.0  0.44417  0.62576  0.35165  1.0000
  C   C86       1.0  0.46677  0.57311  0.31363  1.0000
  C   C87       1.0  0.47748  0.56269  0.31131  1.0000
  C   C88       1.0  0.46763  0.54172  0.32343  1.0000
  C   C89       1.0  0.35218  0.56754  0.34352  1.0000
  C   C90       1.0  0.37307  0.57607  0.34606  1.0000
  C   C91       1.0  0.43378  0.63425  0.39510  1.0000
  C   C92       1.0  0.44153  0.65506  0.39716  1.0000
  C   C93       1.0  0.45984  0.66813  0.35480  1.0000
  C   C94       1.0  0.47067  0.65995  0.31329  1.0000
  C   C95       1.0  0.46300  0.63901  0.31251  1.0000
  H   H65       1.0  0.49268  0.57062  0.30150  1.0000
  H   H66       1.0  0.38135  0.59125  0.35539  1.0000
  H   H67       1.0  0.34622  0.57675  0.34984  1.0000
  H   H68       1.0  0.42021  0.62534  0.42530  1.0000
  H   H69       1.0  0.43332  0.66053  0.42769  1.0000
  C   C96       1.0  0.43495  0.60456  0.34361  1.0000
  N   N16       1.0  0.41470  0.59378  0.34256  1.0000
  C   C97       1.0  0.40377  0.57357  0.33581  1.0000
  C   C98       1.0  0.43490  0.57361  0.33028  1.0000
  N   N17       1.0  0.44482  0.59409  0.33656  1.0000
  H   H70       1.0  0.47467  0.58834  0.30498  1.0000
  N   N18       1.0  0.46513  0.68737  0.35644  1.0000
  N   N19       1.0  0.47874  0.53286  0.31974  1.0000
  C   C99       1.0  0.44383  0.88407  0.32658  1.0000
  C   C100      1.0  0.38101  0.81974  0.35175  1.0000
  C   C101      1.0  0.43367  0.89498  0.31363  1.0000
  C   C102      1.0  0.44410  0.91611  0.31132  1.0000
  C   C103      1.0  0.46506  0.92721  0.32343  1.0000
  C   C104      1.0  0.43921  0.78594  0.34330  1.0000
  C   C105      1.0  0.43069  0.79830  0.34588  1.0000
  C   C106      1.0  0.37252  0.80087  0.39527  1.0000
  C   C107      1.0  0.35171  0.78781  0.39731  1.0000
  C   C108      1.0  0.33864  0.79303  0.35485  1.0000
  C   C109      1.0  0.34683  0.81204  0.31329  1.0000
  C   C110      1.0  0.36777  0.82532  0.31258  1.0000
  H   H71       1.0  0.43617  0.92337  0.30151  1.0000
  H   H72       1.0  0.41550  0.79140  0.35513  1.0000
  H   H73       1.0  0.42999  0.77076  0.34960  1.0000
  H   H74       1.0  0.38143  0.79620  0.42551  1.0000
  H   H75       1.0  0.34624  0.77413  0.42789  1.0000
  C   C111      1.0  0.40221  0.83171  0.34366  1.0000
  N   N20       1.0  0.41299  0.82224  0.34258  1.0000
  C   C112      1.0  0.43320  0.83151  0.33579  1.0000
  C   C113      1.0  0.43316  0.86260  0.33028  1.0000
  N   N21       1.0  0.41269  0.85205  0.33661  1.0000
  H   H76       1.0  0.41845  0.88765  0.30499  1.0000
  N   N22       1.0  0.31940  0.77910  0.35650  1.0000
  N   N23       1.0  0.47393  0.94719  0.31975  1.0000
  C   C114      1.0  0.78732  0.35113  0.33167  1.0000
  C   C115      1.0  0.79959  0.37204  0.33404  1.0000
  C   C116      1.0  0.80201  0.43241  0.39717  1.0000
  C   C117      1.0  0.78888  0.44007  0.39933  1.0000
  C   C118      1.0  0.79414  0.45850  0.35807  1.0000
  C   C119      1.0  0.81327  0.46956  0.31782  1.0000
  H   H77       1.0  0.79254  0.38029  0.33839  1.0000
  H   H78       1.0  0.77207  0.34511  0.33360  1.0000
  H   H79       1.0  0.79731  0.41872  0.42630  1.0000
  H   H80       1.0  0.77510  0.43169  0.42888  1.0000
  N   N24       1.0  0.78011  0.46368  0.35920  1.0000
  C   C120      1.0  0.56200  0.44200  0.33024  1.0000
  C   C121      1.0  0.56373  0.37929  0.35486  1.0000
  C   C122      1.0  0.54092  0.43199  0.34291  1.0000
  C   C123      1.0  0.53028  0.44249  0.34306  1.0000
  C   C124      1.0  0.54023  0.46342  0.32957  1.0000
  C   C125      1.0  0.65563  0.43746  0.33171  1.0000
  C   C126      1.0  0.63473  0.42883  0.33409  1.0000
  C   C127      1.0  0.57434  0.37091  0.39731  1.0000
  C   C128      1.0  0.56667  0.35011  0.39949  1.0000
  C   C129      1.0  0.54826  0.33695  0.35811  1.0000
  C   C130      1.0  0.53722  0.34503  0.31773  1.0000
  C   C131      1.0  0.54479  0.36596  0.31701  1.0000
  H   H81       1.0  0.51509  0.43466  0.35311  1.0000
  H   H82       1.0  0.62647  0.41353  0.33851  1.0000
  H   H83       1.0  0.66165  0.42823  0.33368  1.0000
  H   H84       1.0  0.58802  0.37990  0.42650  1.0000
  H   H85       1.0  0.57504  0.34472  0.42911  1.0000
  C   C132      1.0  0.57290  0.40046  0.34588  1.0000
  N   N25       1.0  0.59313  0.41122  0.34175  1.0000
  C   C133      1.0  0.60400  0.43140  0.33313  1.0000
  C   C134      1.0  0.57283  0.43134  0.33240  1.0000
  N   N26       1.0  0.56299  0.41090  0.34035  1.0000
  H   H86       1.0  0.53295  0.41682  0.35334  1.0000
  N   N27       1.0  0.54308  0.31774  0.35926  1.0000
  N   N28       1.0  0.52912  0.47231  0.33205  1.0000
  C   C135      1.0  0.56476  0.12131  0.33026  1.0000
  C   C136      1.0  0.62745  0.18579  0.35473  1.0000
  C   C137      1.0  0.57478  0.11025  0.34291  1.0000
  C   C138      1.0  0.56429  0.08911  0.34303  1.0000
  C   C139      1.0  0.54336  0.07812  0.32958  1.0000
  C   C140      1.0  0.56925  0.21946  0.33197  1.0000
  C   C141      1.0  0.57788  0.20719  0.33433  1.0000
  C   C142      1.0  0.63583  0.20477  0.39713  1.0000
  C   C143      1.0  0.65662  0.21793  0.39918  1.0000
  C   C144      1.0  0.66979  0.21268  0.35779  1.0000
  C   C145      1.0  0.66172  0.19356  0.31749  1.0000
  C   C146      1.0  0.64079  0.18019  0.31677  1.0000
  H   H87       1.0  0.57213  0.08176  0.35303  1.0000
  H   H88       1.0  0.59318  0.21424  0.33877  1.0000
  H   H89       1.0  0.57847  0.23471  0.33400  1.0000
  H   H90       1.0  0.62684  0.20946  0.42635  1.0000
  H   H91       1.0  0.66200  0.23169  0.42874  1.0000
  C   C147      1.0  0.60628  0.17377  0.34584  1.0000
  N   N29       1.0  0.59551  0.18322  0.34175  1.0000
  C   C148      1.0  0.57533  0.17390  0.33319  1.0000
  C   C149      1.0  0.57541  0.14280  0.33242  1.0000
  N   N30       1.0  0.59585  0.15341  0.34031  1.0000
  H   H92       1.0  0.58995  0.11746  0.35327  1.0000
  N   N31       1.0  0.68898  0.22674  0.35871  1.0000
  N   N32       1.0  0.53447  0.05812  0.33201  1.0000
  C   C150      1.0  0.49008  0.50977  0.33879  1.0000
  C   C151      1.0  0.49105  0.49639  0.40097  1.0000
  C   C152      1.0  0.50484  0.48958  0.39012  1.0000
  H   H93       1.0  0.50526  0.48024  0.43787  1.0000
  H   H94       1.0  0.48181  0.49161  0.45584  1.0000
  C   C153      1.0  0.47608  0.51606  0.35047  1.0000
  H   H95       1.0  0.46382  0.50742  0.38625  1.0000
  C   C154      1.0  0.49702  0.98162  0.33878  1.0000
  C   C155      1.0  0.51040  0.99597  0.40093  1.0000
  C   C156      1.0  0.51721  0.01657  0.39007  1.0000
  H   H96       1.0  0.52657  0.02633  0.43779  1.0000
  H   H97       1.0  0.51520  0.99152  0.45576  1.0000
  C   C157      1.0  0.49073  0.96134  0.35046  1.0000
  H   H98       1.0  0.49937  0.95771  0.38620  1.0000
  C   C158      1.0  0.28833  0.53546  0.36332  1.0000
  C   C159      1.0  0.27557  0.53358  0.43596  1.0000
  C   C160      1.0  0.25626  0.53069  0.41978  1.0000
  H   H99       1.0  0.24775  0.53030  0.47338  1.0000
  O   O3        1.0  0.28189  0.53605  0.52274  1.0000
  H   H100      1.0  0.28089  0.52330  0.54099  1.0000
  C   C161      1.0  0.30852  0.54211  0.37877  1.0000
  H   H101      1.0  0.31489  0.55107  0.43147  1.0000
  C   C162      1.0  0.47129  0.75416  0.36326  1.0000
  C   C163      1.0  0.47323  0.74333  0.43594  1.0000
  C   C164      1.0  0.47615  0.72694  0.41985  1.0000
  H   H102      1.0  0.47658  0.71884  0.47349  1.0000
  O   O4        1.0  0.47080  0.74722  0.52272  1.0000
  H   H103      1.0  0.48356  0.75900  0.54080  1.0000
  C   C165      1.0  0.46462  0.76769  0.37867  1.0000
  H   H104      1.0  0.45564  0.76509  0.43132  1.0000
  C   C166      1.0  0.25260  0.71847  0.36332  1.0000
  C   C167      1.0  0.26343  0.73125  0.43598  1.0000
  C   C168      1.0  0.27983  0.75056  0.41987  1.0000
  H   H105      1.0  0.28792  0.75909  0.47351  1.0000
  O   O5        1.0  0.25953  0.72493  0.52277  1.0000
  H   H106      1.0  0.24775  0.72592  0.54080  1.0000
  C   C169      1.0  0.23907  0.69827  0.37877  1.0000
  H   H107      1.0  0.24168  0.69190  0.43142  1.0000
  C   C170      1.0  0.71925  0.46949  0.36178  1.0000
  C   C171      1.0  0.73170  0.47123  0.43545  1.0000
  C   C172      1.0  0.75112  0.47428  0.42089  1.0000
  H   H108      1.0  0.75943  0.47458  0.47517  1.0000
  O   O6        1.0  0.72496  0.46844  0.52161  1.0000
  H   H109      1.0  0.72581  0.48112  0.54023  1.0000
  C   C173      1.0  0.69896  0.46260  0.37527  1.0000
  H   H110      1.0  0.69229  0.45304  0.42584  1.0000
  C   C174      1.0  0.53722  0.25104  0.36194  1.0000
  C   C175      1.0  0.53548  0.26177  0.43556  1.0000
  C   C176      1.0  0.53243  0.27814  0.42093  1.0000
  H   H111      1.0  0.53213  0.28615  0.47518  1.0000
  O   O7        1.0  0.53820  0.25778  0.52176  1.0000
  H   H112      1.0  0.52550  0.24598  0.54027  1.0000
  C   C177      1.0  0.54407  0.23762  0.37555  1.0000
  H   H113      1.0  0.55364  0.24052  0.42613  1.0000
  C   C178      1.0  0.75575  0.28753  0.36181  1.0000
  C   C179      1.0  0.74495  0.27509  0.43541  1.0000
  C   C180      1.0  0.72858  0.25568  0.42077  1.0000
  H   H114      1.0  0.72049  0.24741  0.47497  1.0000
  O   O8        1.0  0.74887  0.28184  0.52158  1.0000
  H   H115      1.0  0.76064  0.28093  0.54044  1.0000
  C   C181      1.0  0.76917  0.30782  0.37542  1.0000
  H   H116      1.0  0.76624  0.31449  0.42587  1.0000
  C   C182      1.0  0.82082  0.38140  0.33004  1.0000
  C   C183      1.0  0.91779  0.44555  0.31699  1.0000
  C   C184      1.0  0.89664  0.43491  0.31739  1.0000
  C   C185      1.0  0.82917  0.36870  0.32252  1.0000
  H   H117      1.0  0.92516  0.43770  0.30872  1.0000
  H   H118      1.0  0.88950  0.41970  0.30848  1.0000
  H   H119      1.0  0.84438  0.37469  0.31868  1.0000
  H   H120      1.0  0.82328  0.33884  0.31449  1.0000
  H   H121      1.0  0.84007  0.46998  0.28458  1.0000
  N   N33       1.0  0.85330  0.41343  0.32903  1.0000
  C   C186      1.0  0.98309  0.48872  0.31600  1.0000
  C   C187      1.0  0.99739  0.48983  0.25267  1.0000
  O   O9        1.0  0.99181  0.47759  0.17960  1.0000
  H   H122      1.0  0.98789  0.48411  0.13337  1.0000
  C   C188      1.0  0.96281  0.47447  0.30690  1.0000
  H   H123      1.0  0.95923  0.46148  0.27775  1.0000
  C   C189      1.0  0.88547  0.44480  0.33024  1.0000
  C   C190      1.0  0.82100  0.44303  0.35482  1.0000
  C   C191      1.0  0.89653  0.46588  0.34284  1.0000
  C   C192      1.0  0.91767  0.47652  0.34298  1.0000
  C   C193      1.0  0.92866  0.46658  0.32951  1.0000
  C   C194      1.0  0.82662  0.46198  0.31703  1.0000
  H   H124      1.0  0.92502  0.49171  0.35299  1.0000
  C   C195      1.0  0.83301  0.43387  0.34588  1.0000
  N   N34       1.0  0.82355  0.41364  0.34175  1.0000
  C   C196      1.0  0.83288  0.40278  0.33315  1.0000
  C   C197      1.0  0.86398  0.43396  0.33242  1.0000
  N   N35       1.0  0.85337  0.44379  0.34036  1.0000
  H   H125      1.0  0.88933  0.47384  0.35325  1.0000
  N   N36       1.0  0.94866  0.47769  0.33201  1.0000
  C   C198      1.0  0.99020  0.50196  0.39014  1.0000
  H   H126      1.0  0.98045  0.50153  0.43792  1.0000
