data_image0
_chemical_formula_structural       C3H2C2H2NHC3H2C2H2NHC3H2C2H2NHCNCNCNC18H12C3O3CNCNCNC18H12C3O3C7H3NH2NHC7H3NH2NHC7H3NH2NH
_chemical_formula_sum              "C84 H57 N15 O6"
_cell_length_a       44.2278
_cell_length_b       44.2274
_cell_length_c       15.0712
_cell_angle_alpha    90
_cell_angle_beta     90
_cell_angle_gamma    120

_space_group_name_H-M_alt    "P 1"
_space_group_IT_number       1

loop_
  _space_group_symop_operation_xyz
  'x, y, z'

loop_
  _atom_site_type_symbol
  _atom_site_label
  _atom_site_symmetry_multiplicity
  _atom_site_fract_x
  _atom_site_fract_y
  _atom_site_fract_z
  _atom_site_occupancy
  C   C1        1.0  0.54959  0.45827  0.30315  1.0000
  C   C2        1.0  0.52301  0.49065  0.24284  1.0000
  C   C3        1.0  0.54309  0.47448  0.23110  1.0000
  H   H1        1.0  0.51969  0.50316  0.18973  1.0000
  H   H2        1.0  0.55364  0.47528  0.17011  1.0000
  C   C4        1.0  0.44050  0.51602  0.28614  1.0000
  C   C5        1.0  0.45902  0.49795  0.28001  1.0000
  H   H3        1.0  0.42009  0.50930  0.24366  1.0000
  H   H4        1.0  0.45091  0.47792  0.23535  1.0000
  N   N1        1.0  0.56795  0.44138  0.29046  1.0000
  H   H5        1.0  0.56217  0.42664  0.23783  1.0000
  C   C6        1.0  0.53585  0.09014  0.30330  1.0000
  C   C7        1.0  0.50340  0.03118  0.24296  1.0000
  C   C8        1.0  0.51960  0.06744  0.23124  1.0000
  H   H6        1.0  0.49088  0.01537  0.18985  1.0000
  H   H7        1.0  0.51880  0.07720  0.17028  1.0000
  C   C9        1.0  0.47805  0.92329  0.28606  1.0000
  C   C10       1.0  0.49614  0.95989  0.28003  1.0000
  H   H8        1.0  0.48478  0.90962  0.24358  1.0000
  H   H9        1.0  0.51618  0.97182  0.23542  1.0000
  N   N2        1.0  0.55276  0.12538  0.29063  1.0000
  H   H10       1.0  0.56746  0.13434  0.23794  1.0000
  C   C11       1.0  0.90396  0.44451  0.30324  1.0000
  C   C12       1.0  0.96292  0.47109  0.24289  1.0000
  C   C13       1.0  0.92667  0.45101  0.23116  1.0000
  H   H11       1.0  0.97874  0.47439  0.18978  1.0000
  H   H12       1.0  0.91691  0.44043  0.17021  1.0000
  C   C14       1.0  0.07080  0.55363  0.28610  1.0000
  C   C15       1.0  0.03421  0.53511  0.27999  1.0000
  H   H13       1.0  0.08449  0.57400  0.24353  1.0000
  H   H14       1.0  0.02229  0.54322  0.23535  1.0000
  N   N3        1.0  0.86872  0.42616  0.29056  1.0000
  H   H15       1.0  0.85975  0.43191  0.23791  1.0000
  C   C16       1.0  0.29436  0.65121  0.33136  1.0000
  N   N4        1.0  0.30794  0.62963  0.33154  1.0000
  C   C17       1.0  0.34288  0.64196  0.33140  1.0000
  N   N5        1.0  0.36447  0.67712  0.33149  1.0000
  C   C18       1.0  0.35214  0.69974  0.33132  1.0000
  N   N6        1.0  0.31698  0.68616  0.33146  1.0000
  C   C19       1.0  0.35650  0.61898  0.33243  1.0000
  C   C20       1.0  0.33673  0.58459  0.36596  1.0000
  C   C21       1.0  0.35084  0.56232  0.36927  1.0000
  C   C22       1.0  0.38512  0.57357  0.33880  1.0000
  C   C23       1.0  0.40436  0.60756  0.30254  1.0000
  C   C24       1.0  0.39048  0.62999  0.30028  1.0000
  C   C25       1.0  0.25777  0.63760  0.33236  1.0000
  C   C26       1.0  0.23481  0.60362  0.30019  1.0000
  C   C27       1.0  0.19850  0.58974  0.30242  1.0000
  C   C28       1.0  0.18374  0.60897  0.33867  1.0000
  C   C29       1.0  0.20676  0.64324  0.36916  1.0000
  C   C30       1.0  0.24315  0.65736  0.36588  1.0000
  C   C31       1.0  0.37512  0.73633  0.33226  1.0000
  C   C32       1.0  0.36411  0.75929  0.30002  1.0000
  C   C33       1.0  0.38653  0.79560  0.30227  1.0000
  C   C34       1.0  0.42051  0.81036  0.33858  1.0000
  C   C35       1.0  0.43177  0.78735  0.36908  1.0000
  C   C36       1.0  0.40951  0.75096  0.36578  1.0000
  H   H16       1.0  0.18306  0.56546  0.27591  1.0000
  H   H17       1.0  0.24425  0.58873  0.27324  1.0000
  H   H18       1.0  0.19729  0.65815  0.39580  1.0000
  H   H19       1.0  0.25880  0.68197  0.39047  1.0000
  H   H20       1.0  0.33977  0.74984  0.27311  1.0000
  H   H21       1.0  0.37769  0.81104  0.27578  1.0000
  H   H22       1.0  0.41845  0.73531  0.39048  1.0000
  H   H23       1.0  0.45614  0.79682  0.39579  1.0000
  H   H24       1.0  0.40537  0.65432  0.27334  1.0000
  H   H25       1.0  0.42865  0.61640  0.27608  1.0000
  H   H26       1.0  0.33593  0.53794  0.39590  1.0000
  H   H27       1.0  0.31212  0.57564  0.39053  1.0000
  C   C37       1.0  0.14686  0.59466  0.34187  1.0000
  C   C38       1.0  0.44307  0.84724  0.34183  1.0000
  C   C39       1.0  0.39943  0.55100  0.34204  1.0000
  O   O1        1.0  0.37693  0.51610  0.34349  1.0000
  O   O2        1.0  0.47797  0.85965  0.34339  1.0000
  O   O3        1.0  0.13445  0.61715  0.34341  1.0000
  C   C40       1.0  0.69867  0.34405  0.32826  1.0000
  N   N7        1.0  0.68498  0.36554  0.32837  1.0000
  C   C41       1.0  0.65007  0.35343  0.32820  1.0000
  N   N8        1.0  0.62857  0.31825  0.32834  1.0000
  C   C42       1.0  0.64068  0.29545  0.32823  1.0000
  N   N9        1.0  0.67586  0.30914  0.32840  1.0000
  C   C43       1.0  0.63653  0.37659  0.32959  1.0000
  C   C44       1.0  0.65838  0.41274  0.34615  1.0000
  C   C45       1.0  0.64465  0.43533  0.35040  1.0000
  C   C46       1.0  0.60872  0.42263  0.33599  1.0000
  C   C47       1.0  0.58685  0.38664  0.31878  1.0000
  C   C48       1.0  0.60049  0.36401  0.31607  1.0000
  C   C49       1.0  0.73536  0.35759  0.32970  1.0000
  C   C50       1.0  0.75882  0.39363  0.31618  1.0000
  C   C51       1.0  0.79509  0.40727  0.31900  1.0000
  C   C52       1.0  0.80920  0.38540  0.33617  1.0000
  C   C53       1.0  0.78598  0.34947  0.35058  1.0000
  C   C54       1.0  0.74966  0.33574  0.34630  1.0000
  C   C55       1.0  0.61753  0.25875  0.32965  1.0000
  C   C56       1.0  0.63011  0.23530  0.31611  1.0000
  C   C57       1.0  0.60749  0.19903  0.31889  1.0000
  C   C58       1.0  0.57149  0.18491  0.33611  1.0000
  C   C59       1.0  0.55879  0.20813  0.35054  1.0000
  C   C60       1.0  0.58138  0.24445  0.34627  1.0000
  H   H28       1.0  0.81103  0.43362  0.31103  1.0000
  H   H29       1.0  0.74986  0.41057  0.30433  1.0000
  H   H30       1.0  0.79529  0.33288  0.36354  1.0000
  H   H31       1.0  0.73381  0.30958  0.35736  1.0000
  H   H32       1.0  0.65601  0.24426  0.30428  1.0000
  H   H33       1.0  0.61789  0.18309  0.31100  1.0000
  H   H34       1.0  0.57107  0.26030  0.35733  1.0000
  H   H35       1.0  0.53290  0.19882  0.36354  1.0000
  H   H36       1.0  0.58354  0.33811  0.30429  1.0000
  H   H37       1.0  0.56050  0.37623  0.31097  1.0000
  H   H38       1.0  0.66124  0.46123  0.36338  1.0000
  H   H39       1.0  0.68454  0.42306  0.35721  1.0000
  C   C61       1.0  0.84579  0.39969  0.34368  1.0000
  C   C62       1.0  0.54921  0.14832  0.34371  1.0000
  C   C63       1.0  0.59442  0.44492  0.34356  1.0000
  O   O4        1.0  0.60782  0.47025  0.40632  1.0000
  O   O5        1.0  0.52390  0.13639  0.40652  1.0000
  O   O6        1.0  0.85773  0.38633  0.40651  1.0000
  C   C64       1.0  0.53411  0.45707  0.38600  1.0000
  C   C65       1.0  0.51293  0.47231  0.39893  1.0000
  C   C66       1.0  0.50790  0.48994  0.32617  1.0000
  C   C67       1.0  0.48857  0.50751  0.33393  1.0000
  C   C68       1.0  0.49953  0.53593  0.39290  1.0000
  C   C69       1.0  0.48084  0.55384  0.39912  1.0000
  C   C70       1.0  0.45070  0.54384  0.34698  1.0000
  H   H40       1.0  0.52139  0.54402  0.43111  1.0000
  H   H41       1.0  0.48946  0.57441  0.44218  1.0000
  H   H42       1.0  0.53733  0.44365  0.43703  1.0000
  N   N10       1.0  0.49742  0.46841  0.47947  1.0000
  H   H43       1.0  0.50065  0.45545  0.52717  1.0000
  H   H44       1.0  0.48074  0.47618  0.49021  1.0000
  N   N11       1.0  0.43436  0.56324  0.35077  1.0000
  H   H45       1.0  0.44918  0.58788  0.36529  1.0000
  C   C71       1.0  0.53704  0.07584  0.38614  1.0000
  C   C72       1.0  0.52179  0.03941  0.39901  1.0000
  C   C73       1.0  0.50413  0.01677  0.32625  1.0000
  C   C74       1.0  0.48655  0.97987  0.33395  1.0000
  C   C75       1.0  0.45810  0.96239  0.39284  1.0000
  C   C76       1.0  0.44019  0.92579  0.39899  1.0000
  C   C77       1.0  0.45019  0.90566  0.34680  1.0000
  H   H46       1.0  0.45002  0.97615  0.43109  1.0000
  H   H47       1.0  0.41961  0.91382  0.44202  1.0000
  H   H48       1.0  0.55051  0.09247  0.43714  1.0000
  N   N12       1.0  0.52570  0.02779  0.47951  1.0000
  H   H49       1.0  0.53851  0.04394  0.52740  1.0000
  H   H50       1.0  0.51774  0.00331  0.49045  1.0000
  N   N13       1.0  0.43081  0.86992  0.35056  1.0000
  H   H51       1.0  0.40616  0.86008  0.36503  1.0000
  C   C78       1.0  0.91825  0.46004  0.38604  1.0000
  C   C79       1.0  0.95468  0.48123  0.39893  1.0000
  C   C80       1.0  0.97733  0.48623  0.32618  1.0000
  C   C81       1.0  0.01422  0.50555  0.33392  1.0000
  C   C82       1.0  0.03169  0.49458  0.39282  1.0000
  C   C83       1.0  0.06829  0.51325  0.39900  1.0000
  C   C84       1.0  0.08843  0.54338  0.34680  1.0000
  H   H52       1.0  0.01792  0.47273  0.43108  1.0000
  H   H53       1.0  0.08025  0.50463  0.44201  1.0000
  H   H54       1.0  0.90162  0.45685  0.43707  1.0000
  N   N14       1.0  0.96629  0.49678  0.47943  1.0000
  H   H55       1.0  0.95012  0.49342  0.52733  1.0000
  H   H56       1.0  0.99076  0.51330  0.49038  1.0000
  N   N15       1.0  0.12417  0.55972  0.35054  1.0000
  H   H57       1.0  0.13399  0.54490  0.36506  1.0000
