data_image0
_chemical_formula_structural       C17H12C17H12C2H6C2H6C2H6C13H9C13H9C4NC2NCHCHC4NC2NCHCHC4NC2NCHCH
_chemical_formula_sum              "C90 H66 N6"
_cell_length_a       37.4436
_cell_length_b       37.4182
_cell_length_c       14.8826
_cell_angle_alpha    90
_cell_angle_beta     90
_cell_angle_gamma    120.036

_space_group_name_H-M_alt    "P 1"
_space_group_IT_number       1

loop_
  _space_group_symop_operation_xyz
  'x, y, z'

loop_
  _atom_site_type_symbol
  _atom_site_label
  _atom_site_symmetry_multiplicity
  _atom_site_fract_x
  _atom_site_fract_y
  _atom_site_fract_z
  _atom_site_occupancy
  C   C1        1.0  0.47739  0.89169  0.30471  1.0000
  C   C2        1.0  0.45392  0.84821  0.30661  1.0000
  C   C3        1.0  0.38947  0.75707  0.28857  1.0000
  C   C4        1.0  0.36455  0.71444  0.29672  1.0000
  C   C5        1.0  0.32101  0.69555  0.29650  1.0000
  C   C6        1.0  0.29549  0.65209  0.29698  1.0000
  C   C7        1.0  0.31435  0.62741  0.29612  1.0000
  C   C8        1.0  0.35778  0.64538  0.29639  1.0000
  C   C9        1.0  0.38248  0.68895  0.29587  1.0000
  C   C10       1.0  0.37541  0.62041  0.28818  1.0000
  C   C11       1.0  0.42223  0.59688  0.33903  1.0000
  C   C12       1.0  0.40150  0.55559  0.30751  1.0000
  C   C13       1.0  0.42131  0.53198  0.30536  1.0000
  C   C14       1.0  0.25287  0.63452  0.28930  1.0000
  C   C15       1.0  0.18251  0.58717  0.33880  1.0000
  C   C16       1.0  0.15759  0.54508  0.36258  1.0000
  C   C17       1.0  0.11424  0.52569  0.36125  1.0000
  H   H1        1.0  0.50722  0.90551  0.28231  1.0000
  H   H2        1.0  0.46761  0.83188  0.28566  1.0000
  H   H3        1.0  0.41396  0.70230  0.29251  1.0000
  H   H4        1.0  0.30770  0.71373  0.29366  1.0000
  H   H5        1.0  0.29619  0.59590  0.29296  1.0000
  H   H6        1.0  0.40496  0.50196  0.28410  1.0000
  H   H7        1.0  0.37131  0.54184  0.28774  1.0000
  H   H8        1.0  0.09735  0.49526  0.37934  1.0000
  H   H9        1.0  0.17083  0.52809  0.38202  1.0000
  H   H10       1.0  0.36672  0.60145  0.23566  1.0000
  H   H11       1.0  0.40823  0.76738  0.23575  1.0000
  H   H12       1.0  0.24257  0.64412  0.23843  1.0000
  C   C18       1.0  0.54022  0.11591  0.30876  1.0000
  C   C19       1.0  0.56242  0.15935  0.31411  1.0000
  C   C20       1.0  0.62454  0.25115  0.30501  1.0000
  C   C21       1.0  0.64826  0.29381  0.31507  1.0000
  C   C22       1.0  0.69185  0.31383  0.31762  1.0000
  C   C23       1.0  0.71657  0.35745  0.31820  1.0000
  C   C24       1.0  0.69636  0.38091  0.31530  1.0000
  C   C25       1.0  0.65280  0.36190  0.31385  1.0000
  C   C26       1.0  0.62921  0.31825  0.31255  1.0000
  C   C27       1.0  0.63427  0.38609  0.30499  1.0000
  C   C28       1.0  0.58378  0.40586  0.34774  1.0000
  C   C29       1.0  0.60627  0.44921  0.33513  1.0000
  C   C30       1.0  0.58604  0.47238  0.33096  1.0000
  C   C31       1.0  0.75954  0.37569  0.31310  1.0000
  C   C32       1.0  0.82957  0.42879  0.34586  1.0000
  C   C33       1.0  0.85377  0.46984  0.31493  1.0000
  C   C34       1.0  0.89711  0.48901  0.31164  1.0000
  H   H13       1.0  0.51130  0.10159  0.28109  1.0000
  H   H14       1.0  0.54870  0.17520  0.29028  1.0000
  H   H15       1.0  0.59772  0.30405  0.30729  1.0000
  H   H16       1.0  0.70585  0.29626  0.31623  1.0000
  H   H17       1.0  0.71364  0.41246  0.31181  1.0000
  H   H18       1.0  0.60325  0.50374  0.32315  1.0000
  H   H19       1.0  0.63779  0.46453  0.33091  1.0000
  H   H20       1.0  0.91367  0.51902  0.29044  1.0000
  H   H21       1.0  0.84004  0.48635  0.29522  1.0000
  H   H22       1.0  0.64531  0.40763  0.25730  1.0000
  H   H23       1.0  0.60690  0.24095  0.25047  1.0000
  H   H24       1.0  0.77057  0.36095  0.27694  1.0000
  C   C35       1.0  0.48519  0.50493  0.25989  1.0000
  C   C36       1.0  0.50531  0.48163  0.26030  1.0000
  H   H25       1.0  0.50734  0.46851  0.20156  1.0000
  H   H26       1.0  0.47341  0.50835  0.20064  1.0000
  H   H27       1.0  0.53030  0.56789  0.02539  1.0000
  H   H28       1.0  0.48187  0.52196  0.04031  1.0000
  H   H29       1.0  0.54292  0.50957  0.05434  1.0000
  H   H30       1.0  0.53092  0.46224  0.00322  1.0000
  C   C37       1.0  0.50320  0.98294  0.26170  1.0000
  C   C38       1.0  0.52636  0.02639  0.26324  1.0000
  H   H31       1.0  0.53875  0.04193  0.20451  1.0000
  H   H32       1.0  0.49881  0.96811  0.20161  1.0000
  H   H33       1.0  0.44477  0.96223  0.03069  1.0000
  H   H34       1.0  0.49080  0.95964  0.04173  1.0000
  H   H35       1.0  0.50172  0.03317  0.05918  1.0000
  H   H36       1.0  0.54929  0.06865  0.00908  1.0000
  C   C39       1.0  0.02782  0.52646  0.26133  1.0000
  C   C40       1.0  0.98444  0.50668  0.26239  1.0000
  H   H37       1.0  0.96942  0.50529  0.20384  1.0000
  H   H38       1.0  0.04296  0.53892  0.20228  1.0000
  H   H39       1.0  0.04582  0.47489  0.02092  1.0000
  H   H40       1.0  0.04933  0.52344  0.04119  1.0000
  H   H41       1.0  0.97553  0.46447  0.05422  1.0000
  H   H42       1.0  0.94045  0.47723  0.00493  1.0000
  C   C41       1.0  0.46094  0.91596  0.33731  1.0000
  C   C42       1.0  0.41291  0.82745  0.33971  1.0000
  C   C43       1.0  0.39639  0.85195  0.37086  1.0000
  C   C44       1.0  0.41991  0.89535  0.36963  1.0000
  C   C45       1.0  0.38922  0.78443  0.34699  1.0000
  C   C46       1.0  0.40314  0.62075  0.34634  1.0000
  C   C47       1.0  0.46349  0.61350  0.36859  1.0000
  C   C48       1.0  0.46231  0.54853  0.33628  1.0000
  C   C49       1.0  0.48317  0.58983  0.36711  1.0000
  C   C50       1.0  0.22542  0.60588  0.34597  1.0000
  C   C51       1.0  0.16232  0.60909  0.31331  1.0000
  C   C52       1.0  0.09419  0.54770  0.33621  1.0000
  C   C53       1.0  0.11892  0.58959  0.31123  1.0000
  H   H43       1.0  0.40684  0.91187  0.39327  1.0000
  H   H44       1.0  0.36696  0.83834  0.39586  1.0000
  H   H45       1.0  0.17903  0.63985  0.29800  1.0000
  H   H46       1.0  0.47967  0.64314  0.39238  1.0000
  H   H47       1.0  0.51301  0.60304  0.38931  1.0000
  H   H48       1.0  0.10547  0.60669  0.29440  1.0000
  H   H49       1.0  0.41154  0.64027  0.39799  1.0000
  H   H50       1.0  0.36986  0.77323  0.39889  1.0000
  H   H51       1.0  0.23638  0.59650  0.39612  1.0000
  C   C54       1.0  0.55672  0.09229  0.34463  1.0000
  C   C55       1.0  0.60216  0.18064  0.35383  1.0000
  C   C56       1.0  0.61852  0.15661  0.38898  1.0000
  C   C57       1.0  0.59615  0.11317  0.38489  1.0000
  C   C58       1.0  0.62464  0.22366  0.36330  1.0000
  C   C59       1.0  0.60307  0.38232  0.35680  1.0000
  C   C60       1.0  0.54038  0.38660  0.35668  1.0000
  C   C61       1.0  0.54271  0.45284  0.33935  1.0000
  C   C62       1.0  0.52008  0.40969  0.35230  1.0000
  C   C63       1.0  0.78700  0.41119  0.35342  1.0000
  C   C64       1.0  0.84997  0.40749  0.37378  1.0000
  C   C65       1.0  0.91766  0.46801  0.34072  1.0000
  C   C66       1.0  0.89332  0.42682  0.37108  1.0000
  H   H52       1.0  0.60880  0.09687  0.41200  1.0000
  H   H53       1.0  0.64695  0.17057  0.41905  1.0000
  H   H54       1.0  0.83345  0.37795  0.39788  1.0000
  H   H55       1.0  0.52302  0.35541  0.36720  1.0000
  H   H56       1.0  0.48872  0.39484  0.36020  1.0000
  H   H57       1.0  0.90705  0.41051  0.39209  1.0000
  H   H58       1.0  0.59211  0.36054  0.40404  1.0000
  H   H59       1.0  0.64297  0.23482  0.41683  1.0000
  H   H60       1.0  0.77677  0.42652  0.38981  1.0000
  C   C67       1.0  0.52253  0.47641  0.34015  1.0000
  C   C68       1.0  0.51838  0.49434  0.42033  1.0000
  C   C69       1.0  0.49825  0.51797  0.41959  1.0000
  C   C70       1.0  0.48183  0.52406  0.33890  1.0000
  N   N1        1.0  0.49431  0.53334  0.49934  1.0000
  C   C71       1.0  0.50861  0.52814  0.57930  1.0000
  C   C72       1.0  0.52899  0.50479  0.57986  1.0000
  N   N2        1.0  0.53272  0.48910  0.50032  1.0000
  C   C73       1.0  0.50109  0.54643  0.65993  1.0000
  H   H61       1.0  0.48516  0.56328  0.64304  1.0000
  C   C74       1.0  0.54639  0.49559  0.65989  1.0000
  H   H62       1.0  0.57924  0.50720  0.64944  1.0000
  C   C75       1.0  0.53325  0.04841  0.34447  1.0000
  C   C76       1.0  0.51638  0.02573  0.42459  1.0000
  C   C77       1.0  0.49259  0.98195  0.42265  1.0000
  C   C78       1.0  0.48541  0.95994  0.34087  1.0000
  N   N3        1.0  0.47780  0.96210  0.50212  1.0000
  C   C79       1.0  0.48353  0.98109  0.58289  1.0000
  C   C80       1.0  0.50672  0.02485  0.58461  1.0000
  N   N4        1.0  0.52195  0.04479  0.50536  1.0000
  C   C81       1.0  0.46591  0.95470  0.66301  1.0000
  H   H63       1.0  0.44890  0.92201  0.64508  1.0000
  C   C82       1.0  0.51599  0.05103  0.66537  1.0000
  H   H64       1.0  0.50464  0.07254  0.65577  1.0000
  C   C83       1.0  0.96172  0.48819  0.34159  1.0000
  C   C84       1.0  0.98411  0.49120  0.42089  1.0000
  C   C85       1.0  0.02787  0.51099  0.41962  1.0000
  C   C86       1.0  0.05027  0.52841  0.33931  1.0000
  N   N5        1.0  0.04738  0.51378  0.49854  1.0000
  C   C87       1.0  0.02811  0.49886  0.57850  1.0000
  C   C88       1.0  0.98444  0.47924  0.58000  1.0000
  N   N6        1.0  0.96492  0.47660  0.50120  1.0000
  C   C89       1.0  0.05401  0.50475  0.65820  1.0000
  H   H65       1.0  0.08674  0.52051  0.64079  1.0000
  C   C90       1.0  0.95799  0.46153  0.66020  1.0000
  H   H66       1.0  0.93642  0.42879  0.64894  1.0000
