data_image0
_chemical_formula_structural       C5H6C4H4C4NOCHNC3NOCHNCNCHC12H6C6H3C9H3C8H4C6H3C6H2C3NOCHNC3NOCHNC2ONCHC2HC3HC2ONC2HCHCNCH
_chemical_formula_sum              "C90 H42 N12 O6"
_cell_length_a       45.3946
_cell_length_b       45.4004
_cell_length_c       14.3757
_cell_angle_alpha    90
_cell_angle_beta     90
_cell_angle_gamma    119.994

_space_group_name_H-M_alt    "P 1"
_space_group_IT_number       1

loop_
  _space_group_symop_operation_xyz
  'x, y, z'

loop_
  _atom_site_type_symbol
  _atom_site_label
  _atom_site_symmetry_multiplicity
  _atom_site_fract_x
  _atom_site_fract_y
  _atom_site_fract_z
  _atom_site_occupancy
  C   C1        1.0  0.42139  0.58924  0.39024  1.0000
  C   C2        1.0  0.46521  0.84297  0.38802  1.0000
  C   C3        1.0  0.47965  0.87852  0.37966  1.0000
  C   C4        1.0  0.21133  0.63315  0.38761  1.0000
  C   C5        1.0  0.17577  0.61205  0.37926  1.0000
  H   H1        1.0  0.43161  0.54889  0.38535  1.0000
  H   H2        1.0  0.48102  0.83309  0.39618  1.0000
  H   H3        1.0  0.50559  0.89348  0.38134  1.0000
  H   H4        1.0  0.22122  0.65885  0.39534  1.0000
  H   H5        1.0  0.16082  0.62304  0.38045  1.0000
  H   H6        1.0  0.39580  0.57347  0.40043  1.0000
  C   C6        1.0  0.44250  0.57479  0.38182  1.0000
  C   C7        1.0  0.64127  0.45218  0.35242  1.0000
  C   C8        1.0  0.60222  0.19988  0.35126  1.0000
  C   C9        1.0  0.58776  0.16436  0.36098  1.0000
  H   H7        1.0  0.62953  0.49135  0.34168  1.0000
  H   H8        1.0  0.58785  0.20922  0.32262  1.0000
  H   H9        1.0  0.56319  0.14895  0.33951  1.0000
  H   H10       1.0  0.66516  0.46670  0.32498  1.0000
  C   C10       1.0  0.62021  0.46664  0.36204  1.0000
  C   C11       1.0  0.55142  0.50383  0.37962  1.0000
  C   C12       1.0  0.54924  0.52139  0.30120  1.0000
  C   C13       1.0  0.53042  0.53814  0.30334  1.0000
  N   N1        1.0  0.53263  0.55111  0.21887  1.0000
  O   O1        1.0  0.56348  0.52381  0.21611  1.0000
  C   C14       1.0  0.55217  0.54247  0.16913  1.0000
  H   H11       1.0  0.55818  0.54934  0.10107  1.0000
  N   N2        1.0  0.56973  0.48830  0.37340  1.0000
  C   C15       1.0  0.55047  0.05841  0.37992  1.0000
  C   C16       1.0  0.53294  0.03867  0.30148  1.0000
  C   C17       1.0  0.51621  0.00310  0.30362  1.0000
  N   N3        1.0  0.50325  0.99232  0.21915  1.0000
  O   O2        1.0  0.53052  0.05047  0.21637  1.0000
  C   C18       1.0  0.51188  0.02050  0.16939  1.0000
  H   H12       1.0  0.50501  0.01963  0.10133  1.0000
  N   N4        1.0  0.56598  0.09225  0.37367  1.0000
  C   C19       1.0  0.05117  0.52397  0.30360  1.0000
  N   N5        1.0  0.06195  0.52180  0.21912  1.0000
  C   C20       1.0  0.03378  0.50225  0.16938  1.0000
  H   H13       1.0  0.03465  0.49625  0.10131  1.0000
  C   C21       1.0  0.42958  0.82133  0.38321  1.0000
  C   C22       1.0  0.43523  0.62478  0.38293  1.0000
  C   C23       1.0  0.23296  0.61915  0.38325  1.0000
  C   C24       1.0  0.47788  0.59546  0.36554  1.0000
  C   C25       1.0  0.49144  0.63107  0.35905  1.0000
  C   C26       1.0  0.47050  0.64558  0.36784  1.0000
  C   C27       1.0  0.45890  0.89329  0.36606  1.0000
  C   C28       1.0  0.42322  0.87133  0.36212  1.0000
  C   C29       1.0  0.40871  0.83588  0.37078  1.0000
  C   C30       1.0  0.16100  0.57650  0.36608  1.0000
  C   C31       1.0  0.18295  0.56277  0.36263  1.0000
  C   C32       1.0  0.21840  0.58371  0.37135  1.0000
  H   H14       1.0  0.51687  0.64693  0.34679  1.0000
  H   H15       1.0  0.48133  0.67146  0.36163  1.0000
  H   H16       1.0  0.38277  0.82088  0.36645  1.0000
  H   H17       1.0  0.40730  0.88096  0.35180  1.0000
  H   H18       1.0  0.17331  0.53721  0.35266  1.0000
  H   H19       1.0  0.23340  0.57276  0.36736  1.0000
  C   C33       1.0  0.32984  0.67080  0.39015  1.0000
  C   C34       1.0  0.34839  0.70674  0.39006  1.0000
  C   C35       1.0  0.38437  0.72447  0.39014  1.0000
  C   C36       1.0  0.40177  0.70592  0.39006  1.0000
  C   C37       1.0  0.38352  0.66995  0.39015  1.0000
  C   C38       1.0  0.34757  0.65255  0.39006  1.0000
  H   H20       1.0  0.42791  0.71870  0.38974  1.0000
  H   H21       1.0  0.33560  0.72010  0.38975  1.0000
  H   H22       1.0  0.33421  0.62641  0.38975  1.0000
  C   C39       1.0  0.26609  0.63839  0.38754  1.0000
  C   C40       1.0  0.29652  0.65443  0.38940  1.0000
  C   C41       1.0  0.41596  0.63864  0.38743  1.0000
  C   C42       1.0  0.39990  0.65300  0.38938  1.0000
  C   C43       1.0  0.40131  0.75779  0.38940  1.0000
  C   C44       1.0  0.41570  0.78821  0.38752  1.0000
  C   C45       1.0  0.12631  0.55519  0.35143  1.0000
  C   C46       1.0  0.47226  0.92798  0.35153  1.0000
  C   C47       1.0  0.49918  0.58204  0.35098  1.0000
  H   H23       1.0  0.51964  0.59517  0.31118  1.0000
  H   H24       1.0  0.45905  0.93530  0.31205  1.0000
  H   H25       1.0  0.11901  0.53465  0.31200  1.0000
  C   C48       1.0  0.63582  0.22217  0.38144  1.0000
  C   C49       1.0  0.62974  0.41839  0.38119  1.0000
  C   C50       1.0  0.58713  0.44779  0.40067  1.0000
  C   C51       1.0  0.57591  0.41388  0.42879  1.0000
  C   C52       1.0  0.59679  0.39934  0.41919  1.0000
  C   C53       1.0  0.60642  0.15018  0.40115  1.0000
  C   C54       1.0  0.64013  0.17291  0.43075  1.0000
  C   C55       1.0  0.65468  0.20832  0.42102  1.0000
  H   H26       1.0  0.55223  0.39927  0.45733  1.0000
  H   H27       1.0  0.58766  0.37476  0.44101  1.0000
  H   H28       1.0  0.67911  0.22379  0.44394  1.0000
  H   H29       1.0  0.65460  0.16387  0.46046  1.0000
  C   C56       1.0  0.73529  0.37268  0.36992  1.0000
  C   C57       1.0  0.71680  0.33674  0.37004  1.0000
  C   C58       1.0  0.68083  0.31894  0.36992  1.0000
  C   C59       1.0  0.66336  0.33743  0.37004  1.0000
  C   C60       1.0  0.68154  0.37340  0.36994  1.0000
  C   C61       1.0  0.71749  0.39087  0.37004  1.0000
  H   H30       1.0  0.63721  0.32460  0.37061  1.0000
  H   H31       1.0  0.72964  0.32342  0.37061  1.0000
  H   H32       1.0  0.73080  0.41701  0.37061  1.0000
  C   C62       1.0  0.64901  0.40460  0.37449  1.0000
  C   C63       1.0  0.66510  0.39028  0.37132  1.0000
  C   C64       1.0  0.66395  0.28563  0.37134  1.0000
  C   C65       1.0  0.64962  0.25522  0.37459  1.0000
  C   C66       1.0  0.59279  0.11533  0.41513  1.0000
  C   C67       1.0  0.56590  0.46141  0.41460  1.0000
  H   H33       1.0  0.54605  0.44902  0.45690  1.0000
  H   H34       1.0  0.60511  0.10789  0.45775  1.0000
  C   C68       1.0  0.51300  0.53912  0.38402  1.0000
  C   C69       1.0  0.51522  0.52162  0.46249  1.0000
  C   C70       1.0  0.53406  0.50489  0.46038  1.0000
  N   N6        1.0  0.53190  0.49203  0.54498  1.0000
  O   O3        1.0  0.50100  0.51925  0.54757  1.0000
  C   C71       1.0  0.51238  0.50070  0.59471  1.0000
  H   H35       1.0  0.50641  0.49388  0.66280  1.0000
  N   N7        1.0  0.49465  0.55458  0.39014  1.0000
  C   C72       1.0  0.51523  0.98471  0.38432  1.0000
  C   C73       1.0  0.53270  0.00443  0.46280  1.0000
  C   C74       1.0  0.54940  0.04000  0.46070  1.0000
  N   N8        1.0  0.56223  0.05070  0.54534  1.0000
  O   O4        1.0  0.53505  0.99258  0.54790  1.0000
  C   C75       1.0  0.55357  0.02252  0.59506  1.0000
  H   H36       1.0  0.56038  0.02337  0.66318  1.0000
  N   N9        1.0  0.49981  0.95091  0.39040  1.0000
  C   C76       1.0  0.06957  0.54138  0.38430  1.0000
  C   C77       1.0  0.04984  0.53912  0.46280  1.0000
  O   O5        1.0  0.06169  0.55331  0.54790  1.0000
  N   N10       1.0  0.10337  0.55978  0.39037  1.0000
  C   C78       1.0  0.85438  0.41320  0.35111  1.0000
  H   H37       1.0  0.84505  0.38951  0.32230  1.0000
  C   C79       1.0  0.83208  0.42446  0.38150  1.0000
  C   C80       1.0  0.84591  0.45713  0.42130  1.0000
  H   H38       1.0  0.83043  0.46606  0.44435  1.0000
  C   C81       1.0  0.79902  0.40520  0.37462  1.0000
  C   C82       1.0  0.76861  0.38911  0.37135  1.0000
  C   C83       1.0  0.88990  0.43425  0.36086  1.0000
  H   H39       1.0  0.90533  0.42513  0.33917  1.0000
  C   C84       1.0  0.99586  0.50290  0.37993  1.0000
  C   C85       1.0  0.01560  0.50512  0.30148  1.0000
  O   O6        1.0  0.00380  0.49090  0.21636  1.0000
  N   N11       1.0  0.96202  0.48457  0.37369  1.0000
  C   C86       1.0  0.90407  0.46705  0.40121  1.0000
  C   C87       1.0  0.88133  0.47800  0.43102  1.0000
  H   H40       1.0  0.89036  0.50147  0.46085  1.0000
  C   C88       1.0  0.93893  0.48829  0.41515  1.0000
  H   H41       1.0  0.94637  0.50806  0.45773  1.0000
  C   C89       1.0  0.01427  0.52024  0.46071  1.0000
  N   N12       1.0  0.00357  0.52234  0.54535  1.0000
  C   C90       1.0  0.03175  0.54187  0.59508  1.0000
  H   H42       1.0  0.03091  0.54783  0.66319  1.0000
