data_image0
_chemical_formula_structural       C4HC4HCHC2N2H4CHC8HC7HCH4N3C8HC7HCH4N4C3HCHC3H2CHC3HC3H2CHC3H2CHC3H2CHC6H2N3C3HOHC3HOHCHC3HOHCHC3HOHCHC3HOHCHC3HOHCH
_chemical_formula_sum              "C96 H54 N12 O6"
_cell_length_a       30.5484
_cell_length_b       30.5484
_cell_length_c       14.8127
_cell_angle_alpha    90.0004
_cell_angle_beta     89.9996
_cell_angle_gamma    120

_space_group_name_H-M_alt    "P 1"
_space_group_IT_number       1

loop_
  _space_group_symop_operation_xyz
  'x, y, z'

loop_
  _atom_site_type_symbol
  _atom_site_label
  _atom_site_symmetry_multiplicity
  _atom_site_fract_x
  _atom_site_fract_y
  _atom_site_fract_z
  _atom_site_occupancy
  C   C1        1.0  0.05208  0.55616  0.34501  1.0000
  C   C2        1.0  0.05349  0.46421  0.34066  1.0000
  C   C3        1.0  0.09997  0.51009  0.34506  1.0000
  C   C4        1.0  0.09912  0.55650  0.34373  1.0000
  H   H1        1.0  0.05366  0.43079  0.34204  1.0000
  C   C5        1.0  0.05066  0.60254  0.34500  1.0000
  C   C6        1.0  0.04926  0.69449  0.34058  1.0000
  C   C7        1.0  0.09616  0.69602  0.34103  1.0000
  C   C8        1.0  0.09670  0.64978  0.34274  1.0000
  H   H2        1.0  0.04909  0.72791  0.34195  1.0000
  C   C9        1.0  0.15685  0.79047  0.33710  1.0000
  H   H3        1.0  0.13096  0.80147  0.32339  1.0000
  C   C10       1.0  0.14341  0.60399  0.33366  1.0000
  C   C11       1.0  0.14256  0.64932  0.33563  1.0000
  N   N1        1.0  0.14082  0.50334  0.35231  1.0000
  N   N2        1.0  0.14082  0.74043  0.34261  1.0000
  H   H4        1.0  0.17747  0.44094  0.32514  1.0000
  H   H5        1.0  0.19995  0.89025  0.31103  1.0000
  H   H6        1.0  0.17621  0.68213  0.32721  1.0000
  H   H7        1.0  0.17708  0.60686  0.31790  1.0000
  C   C12       1.0  0.19031  0.53198  0.37471  1.0000
  H   H8        1.0  0.20164  0.56642  0.40274  1.0000
  C   C13       1.0  0.57457  0.60326  0.34499  1.0000
  C   C14       1.0  0.62181  0.60446  0.34276  1.0000
  C   C15       1.0  0.66804  0.65123  0.34109  1.0000
  C   C16       1.0  0.66652  0.69661  0.34064  1.0000
  C   C17       1.0  0.62064  0.69722  0.34498  1.0000
  C   C18       1.0  0.57422  0.64995  0.34373  1.0000
  C   C19       1.0  0.62135  0.55815  0.33559  1.0000
  C   C20       1.0  0.52674  0.64676  0.33376  1.0000
  H   H9        1.0  0.69994  0.73020  0.34204  1.0000
  C   C21       1.0  0.52818  0.55545  0.34500  1.0000
  C   C22       1.0  0.52853  0.50876  0.34372  1.0000
  C   C23       1.0  0.48212  0.46149  0.34503  1.0000
  C   C24       1.0  0.43624  0.46210  0.34074  1.0000
  C   C25       1.0  0.43471  0.50748  0.34115  1.0000
  C   C26       1.0  0.48094  0.55425  0.34282  1.0000
  C   C27       1.0  0.57601  0.51196  0.33359  1.0000
  H   H10       1.0  0.40281  0.42850  0.34206  1.0000
  C   C28       1.0  0.48141  0.60057  0.33565  1.0000
  H   H11       1.0  0.57890  0.48116  0.31792  1.0000
  H   H12       1.0  0.65416  0.55730  0.32728  1.0000
  H   H13       1.0  0.44860  0.60141  0.32725  1.0000
  H   H14       1.0  0.52385  0.67753  0.31782  1.0000
  N   N3        1.0  0.62738  0.74481  0.35226  1.0000
  N   N4        1.0  0.39029  0.50772  0.34273  1.0000
  N   N5        1.0  0.47537  0.41389  0.35229  1.0000
  C   C29       1.0  0.52747  0.07864  0.34519  1.0000
  C   C30       1.0  0.52627  0.12468  0.34290  1.0000
  C   C31       1.0  0.47950  0.12414  0.34115  1.0000
  C   C32       1.0  0.43412  0.07724  0.34072  1.0000
  C   C33       1.0  0.43351  0.03075  0.34511  1.0000
  C   C34       1.0  0.48078  0.03161  0.34392  1.0000
  C   C35       1.0  0.57258  0.17053  0.33578  1.0000
  C   C36       1.0  0.48397  0.98732  0.33387  1.0000
  H   H15       1.0  0.40053  0.07708  0.34198  1.0000
  C   C37       1.0  0.57528  0.08006  0.34520  1.0000
  C   C38       1.0  0.62196  0.12709  0.34392  1.0000
  C   C39       1.0  0.66923  0.12795  0.34515  1.0000
  C   C40       1.0  0.66862  0.08146  0.34082  1.0000
  C   C41       1.0  0.62324  0.03456  0.34122  1.0000
  C   C42       1.0  0.57648  0.03402  0.34298  1.0000
  C   C43       1.0  0.61877  0.17138  0.33382  1.0000
  H   H16       1.0  0.70222  0.08163  0.34201  1.0000
  C   C44       1.0  0.53016  0.98817  0.33586  1.0000
  H   H17       1.0  0.64955  0.20503  0.31783  1.0000
  H   H18       1.0  0.57342  0.20417  0.32717  1.0000
  H   H19       1.0  0.52932  0.95453  0.32723  1.0000
  H   H20       1.0  0.45321  0.95367  0.31784  1.0000
  N   N6        1.0  0.38591  0.98990  0.35231  1.0000
  N   N7        1.0  0.47974  0.16880  0.34269  1.0000
  N   N8        1.0  0.62301  0.98990  0.34279  1.0000
  N   N9        1.0  0.71684  0.16880  0.35233  1.0000
  C   C45       1.0  0.30320  0.48829  0.34630  1.0000
  C   C46       1.0  0.25151  0.45327  0.33046  1.0000
  C   C47       1.0  0.21423  0.46744  0.33853  1.0000
  H   H21       1.0  0.24049  0.41704  0.31103  1.0000
  C   C48       1.0  0.34026  0.47371  0.33724  1.0000
  H   H22       1.0  0.32926  0.43682  0.32344  1.0000
  C   C49       1.0  0.64242  0.92223  0.34632  1.0000
  C   C50       1.0  0.67746  0.90557  0.33048  1.0000
  C   C51       1.0  0.66328  0.85411  0.33853  1.0000
  H   H23       1.0  0.68979  0.84386  0.32518  1.0000
  H   H24       1.0  0.71368  0.93078  0.31108  1.0000
  C   C52       1.0  0.65701  0.97388  0.33727  1.0000
  H   H25       1.0  0.69390  0.99976  0.32347  1.0000
  C   C53       1.0  0.20849  0.82752  0.34624  1.0000
  C   C54       1.0  0.22515  0.87923  0.33048  1.0000
  C   C55       1.0  0.27661  0.91649  0.33853  1.0000
  H   H26       1.0  0.28687  0.95327  0.32521  1.0000
  C   C56       1.0  0.79955  0.67041  0.34630  1.0000
  C   C57       1.0  0.85125  0.70545  0.33047  1.0000
  C   C58       1.0  0.88851  0.69125  0.33848  1.0000
  H   H27       1.0  0.92529  0.71776  0.32514  1.0000
  H   H28       1.0  0.86227  0.74166  0.31102  1.0000
  C   C59       1.0  0.76250  0.68500  0.33723  1.0000
  H   H29       1.0  0.77349  0.72189  0.32343  1.0000
  C   C60       1.0  0.46032  0.23647  0.34627  1.0000
  C   C61       1.0  0.42529  0.25314  0.33047  1.0000
  C   C62       1.0  0.43948  0.30459  0.33850  1.0000
  H   H30       1.0  0.41297  0.31486  0.32517  1.0000
  H   H31       1.0  0.38907  0.22794  0.31101  1.0000
  C   C63       1.0  0.44574  0.18483  0.33715  1.0000
  H   H32       1.0  0.40884  0.15894  0.32345  1.0000
  C   C64       1.0  0.89426  0.33118  0.34626  1.0000
  C   C65       1.0  0.87759  0.27947  0.33048  1.0000
  C   C66       1.0  0.82614  0.24221  0.33854  1.0000
  H   H33       1.0  0.81587  0.20544  0.32518  1.0000
  H   H34       1.0  0.90279  0.26846  0.31102  1.0000
  C   C67       1.0  0.94590  0.36823  0.33713  1.0000
  H   H35       1.0  0.97179  0.35723  0.32344  1.0000
  C   C68       1.0  0.00605  0.50892  0.34279  1.0000
  C   C69       1.0  0.00659  0.46268  0.34108  1.0000
  C   C70       1.0  0.96020  0.50938  0.33561  1.0000
  C   C71       1.0  0.00363  0.60219  0.34372  1.0000
  C   C72       1.0  0.00278  0.64861  0.34496  1.0000
  C   C73       1.0  0.95933  0.55471  0.33381  1.0000
  H   H36       1.0  0.92568  0.55183  0.31778  1.0000
  H   H37       1.0  0.92654  0.47657  0.32722  1.0000
  N   N10       1.0  0.96193  0.41826  0.34265  1.0000
  N   N11       1.0  0.96192  0.65536  0.35223  1.0000
  N   N12       1.0  0.71246  0.65099  0.34271  1.0000
  C   C74       1.0  0.22690  0.51675  0.36633  1.0000
  C   C75       1.0  0.27864  0.55169  0.38431  1.0000
  C   C76       1.0  0.31592  0.53785  0.37229  1.0000
  H   H38       1.0  0.35274  0.56445  0.38499  1.0000
  O   O1        1.0  0.29482  0.60054  0.40804  1.0000
  H   H39       1.0  0.29452  0.60120  0.47441  1.0000
  C   C77       1.0  0.61397  0.81748  0.36632  1.0000
  C   C78       1.0  0.57903  0.83428  0.38429  1.0000
  C   C79       1.0  0.59287  0.88540  0.37231  1.0000
  H   H40       1.0  0.56626  0.89561  0.38496  1.0000
  O   O2        1.0  0.53017  0.80159  0.40798  1.0000
  H   H41       1.0  0.52949  0.80062  0.47435  1.0000
  C   C80       1.0  0.59873  0.76565  0.37466  1.0000
  H   H42       1.0  0.56429  0.74255  0.40267  1.0000
  C   C81       1.0  0.31324  0.90382  0.36630  1.0000
  C   C82       1.0  0.29644  0.85208  0.38423  1.0000
  C   C83       1.0  0.24532  0.81480  0.37223  1.0000
  H   H43       1.0  0.23511  0.77797  0.38479  1.0000
  O   O3        1.0  0.32913  0.83589  0.40790  1.0000
  H   H44       1.0  0.33009  0.83617  0.47426  1.0000
  C   C84       1.0  0.36506  0.94041  0.37468  1.0000
  H   H45       1.0  0.38817  0.92907  0.40268  1.0000
  C   C85       1.0  0.87584  0.64195  0.36628  1.0000
  C   C86       1.0  0.82410  0.60701  0.38423  1.0000
  C   C87       1.0  0.78683  0.62086  0.37228  1.0000
  H   H46       1.0  0.75001  0.59425  0.38495  1.0000
  O   O4        1.0  0.80794  0.55816  0.40801  1.0000
  H   H47       1.0  0.80824  0.55752  0.47439  1.0000
  C   C88       1.0  0.91244  0.62671  0.37463  1.0000
  H   H48       1.0  0.90110  0.59227  0.40264  1.0000
  C   C89       1.0  0.48877  0.34122  0.36633  1.0000
  C   C90       1.0  0.52372  0.32443  0.38426  1.0000
  C   C91       1.0  0.50987  0.27330  0.37226  1.0000
  H   H49       1.0  0.53648  0.26309  0.38493  1.0000
  O   O5        1.0  0.57256  0.35710  0.40806  1.0000
  H   H50       1.0  0.57320  0.35803  0.47443  1.0000
  C   C92       1.0  0.50401  0.39305  0.37468  1.0000
  H   H51       1.0  0.53845  0.41615  0.40273  1.0000
  C   C93       1.0  0.78950  0.25489  0.36630  1.0000
  C   C94       1.0  0.80630  0.30663  0.38422  1.0000
  C   C95       1.0  0.85742  0.34391  0.37222  1.0000
  H   H52       1.0  0.86764  0.38073  0.38487  1.0000
  O   O6        1.0  0.77362  0.32280  0.40798  1.0000
  H   H53       1.0  0.77269  0.32252  0.47436  1.0000
  C   C96       1.0  0.73768  0.21830  0.37467  1.0000
  H   H54       1.0  0.71457  0.22964  0.40269  1.0000
