data_image0
_chemical_formula_structural       C13H9C13H9C13H9C13H9C4NC2NHOHC4NC2NHOHC4NC2NHOHC2H2C2H2C2H2C17H12C17H12C17H12C17H12C2H2C2H2C2H2C4NC2NHOHC4NC2NHOHC4NC2NHOH
_chemical_formula_sum              "C168 H108 N12 O6"
_cell_length_a       57.1323
_cell_length_b       57.1155
_cell_length_c       14.9791
_cell_angle_alpha    90
_cell_angle_beta     90
_cell_angle_gamma    120.005

_space_group_name_H-M_alt    "P 1"
_space_group_IT_number       1

loop_
  _space_group_symop_operation_xyz
  'x, y, z'

loop_
  _atom_site_type_symbol
  _atom_site_label
  _atom_site_symmetry_multiplicity
  _atom_site_fract_x
  _atom_site_fract_y
  _atom_site_fract_z
  _atom_site_occupancy
  C   C1        1.0  0.91129  0.83738  0.32943  1.0000
  C   C2        1.0  0.93809  0.89506  0.32937  1.0000
  C   C3        1.0  0.91101  0.87945  0.30001  1.0000
  C   C4        1.0  0.89779  0.85103  0.30008  1.0000
  C   C5        1.0  0.95092  0.92317  0.32542  1.0000
  C   C6        1.0  0.06565  0.02797  0.33035  1.0000
  C   C7        1.0  0.10937  0.03175  0.30566  1.0000
  C   C8        1.0  0.15141  0.07428  0.33330  1.0000
  C   C9        1.0  0.13778  0.04702  0.30512  1.0000
  C   C10       1.0  0.96509  0.04282  0.33289  1.0000
  C   C11       1.0  0.92152  0.03998  0.30870  1.0000
  C   C12       1.0  0.91686  0.07991  0.33320  1.0000
  C   C13       1.0  0.90570  0.05254  0.30760  1.0000
  H   H1        1.0  0.87817  0.84035  0.27860  1.0000
  H   H2        1.0  0.90062  0.88865  0.27807  1.0000
  H   H3        1.0  0.91297  0.02024  0.28876  1.0000
  H   H4        1.0  0.10018  0.01208  0.28445  1.0000
  H   H5        1.0  0.14847  0.03805  0.28396  1.0000
  H   H6        1.0  0.88594  0.04155  0.28776  1.0000
  H   H7        1.0  0.05760  0.01593  0.27763  1.0000
  H   H8        1.0  0.94722  0.93129  0.27223  1.0000
  H   H9        1.0  0.98111  0.05123  0.29275  1.0000
  C   C14       1.0  0.52404  0.36692  0.31886  1.0000
  C   C15       1.0  0.48350  0.31108  0.31324  1.0000
  C   C16       1.0  0.50980  0.31993  0.28026  1.0000
  C   C17       1.0  0.52976  0.34739  0.28324  1.0000
  C   C18       1.0  0.46480  0.28357  0.31189  1.0000
  C   C19       1.0  0.35166  0.18333  0.33241  1.0000
  C   C20       1.0  0.30786  0.18043  0.32807  1.0000
  C   C21       1.0  0.26621  0.13657  0.33378  1.0000
  C   C22       1.0  0.27945  0.16503  0.32771  1.0000
  C   C23       1.0  0.45876  0.17280  0.34504  1.0000
  C   C24       1.0  0.50653  0.18720  0.34362  1.0000
  C   C25       1.0  0.52153  0.15393  0.34076  1.0000
  C   C26       1.0  0.52746  0.18108  0.34154  1.0000
  H   H10       1.0  0.54879  0.35288  0.26121  1.0000
  H   H11       1.0  0.51493  0.30636  0.25559  1.0000
  H   H12       1.0  0.51150  0.20710  0.34288  1.0000
  H   H13       1.0  0.31693  0.20103  0.32290  1.0000
  H   H14       1.0  0.26852  0.17470  0.32185  1.0000
  H   H15       1.0  0.54707  0.19662  0.33993  1.0000
  H   H16       1.0  0.35972  0.19711  0.28416  1.0000
  H   H17       1.0  0.46426  0.27333  0.25730  1.0000
  H   H18       1.0  0.44672  0.16726  0.29186  1.0000
  C   C27       1.0  0.62177  0.15749  0.31866  1.0000
  C   C28       1.0  0.67761  0.17283  0.31321  1.0000
  C   C29       1.0  0.66875  0.19026  0.28012  1.0000
  C   C30       1.0  0.64130  0.18275  0.28306  1.0000
  C   C31       1.0  0.70513  0.18171  0.31211  1.0000
  C   C32       1.0  0.80653  0.17008  0.33226  1.0000
  C   C33       1.0  0.81019  0.12977  0.31699  1.0000
  C   C34       1.0  0.85398  0.13199  0.33082  1.0000
  C   C35       1.0  0.82582  0.11700  0.31553  1.0000
  C   C36       1.0  0.81596  0.28644  0.34605  1.0000
  C   C37       1.0  0.80161  0.31985  0.34316  1.0000
  C   C38       1.0  0.83493  0.36812  0.34091  1.0000
  C   C39       1.0  0.80778  0.34692  0.34085  1.0000
  H   H19       1.0  0.63580  0.19628  0.26103  1.0000
  H   H20       1.0  0.68231  0.20898  0.25556  1.0000
  H   H21       1.0  0.78172  0.30494  0.34182  1.0000
  H   H22       1.0  0.78986  0.11837  0.30489  1.0000
  H   H23       1.0  0.81652  0.09670  0.30245  1.0000
  H   H24       1.0  0.79226  0.35102  0.33853  1.0000
  H   H25       1.0  0.79358  0.16526  0.28178  1.0000
  H   H26       1.0  0.71544  0.19153  0.25776  1.0000
  H   H27       1.0  0.82165  0.27991  0.29329  1.0000
  C   C40       1.0  0.83131  0.46477  0.31876  1.0000
  C   C41       1.0  0.81576  0.50512  0.31347  1.0000
  C   C42       1.0  0.79840  0.47880  0.28041  1.0000
  C   C43       1.0  0.80601  0.45893  0.28327  1.0000
  C   C44       1.0  0.80679  0.52370  0.31242  1.0000
  C   C45       1.0  0.82022  0.63708  0.33296  1.0000
  C   C46       1.0  0.86108  0.68092  0.33107  1.0000
  C   C47       1.0  0.85872  0.72251  0.33306  1.0000
  C   C48       1.0  0.87404  0.70934  0.33032  1.0000
  C   C49       1.0  0.70232  0.52999  0.34506  1.0000
  C   C50       1.0  0.66894  0.48221  0.34403  1.0000
  C   C51       1.0  0.62068  0.46721  0.34085  1.0000
  C   C52       1.0  0.64189  0.46129  0.34196  1.0000
  H   H28       1.0  0.79252  0.43987  0.26130  1.0000
  H   H29       1.0  0.77966  0.47357  0.25594  1.0000
  H   H30       1.0  0.68385  0.47724  0.34350  1.0000
  H   H31       1.0  0.87270  0.67190  0.32817  1.0000
  H   H32       1.0  0.89469  0.72032  0.32637  1.0000
  H   H33       1.0  0.63780  0.44166  0.34059  1.0000
  H   H34       1.0  0.82612  0.62901  0.28528  1.0000
  H   H35       1.0  0.79695  0.52412  0.25802  1.0000
  H   H36       1.0  0.70884  0.54197  0.29175  1.0000
  C   C53       1.0  0.23765  0.12102  0.32991  1.0000
  C   C54       1.0  0.22349  0.11110  0.24795  1.0000
  C   C55       1.0  0.19469  0.09549  0.24933  1.0000
  C   C56       1.0  0.18011  0.08991  0.33060  1.0000
  N   N1        1.0  0.18143  0.08655  0.17018  1.0000
  C   C57       1.0  0.19410  0.09148  0.09034  1.0000
  C   C58       1.0  0.22241  0.10668  0.08842  1.0000
  N   N2        1.0  0.23615  0.11595  0.16658  1.0000
  H   H37       1.0  0.18309  0.08426  0.03301  1.0000
  O   O1        1.0  0.23563  0.11206  0.00948  1.0000
  H   H38       1.0  0.25577  0.12654  0.16284  1.0000
  C   C59       1.0  0.86984  0.11922  0.32718  1.0000
  C   C60       1.0  0.87456  0.10916  0.24618  1.0000
  C   C61       1.0  0.89012  0.09592  0.24856  1.0000
  C   C62       1.0  0.90110  0.09286  0.32971  1.0000
  N   N3        1.0  0.89490  0.08693  0.17029  1.0000
  C   C63       1.0  0.88558  0.08972  0.09033  1.0000
  C   C64       1.0  0.87039  0.10282  0.08723  1.0000
  N   N4        1.0  0.86542  0.11211  0.16449  1.0000
  H   H39       1.0  0.88987  0.08263  0.03367  1.0000
  O   O2        1.0  0.86118  0.10634  0.00799  1.0000
  H   H40       1.0  0.85523  0.12152  0.15960  1.0000
  C   C65       1.0  0.87171  0.75108  0.32843  1.0000
  C   C66       1.0  0.87554  0.76502  0.24621  1.0000
  C   C67       1.0  0.88875  0.79383  0.24679  1.0000
  C   C68       1.0  0.89814  0.80864  0.32753  1.0000
  N   N5        1.0  0.89273  0.80686  0.16735  1.0000
  C   C69       1.0  0.88464  0.79399  0.08794  1.0000
  C   C70       1.0  0.87152  0.76567  0.08682  1.0000
  N   N6        1.0  0.86738  0.75213  0.16528  1.0000
  H   H41       1.0  0.88820  0.80484  0.03036  1.0000
  O   O3        1.0  0.86336  0.75222  0.00832  1.0000
  H   H42       1.0  0.85839  0.73250  0.16205  1.0000
  C   C71       1.0  0.58100  0.15275  0.24808  1.0000
  C   C72       1.0  0.55594  0.15158  0.25387  1.0000
  H   H43       1.0  0.54782  0.15456  0.19691  1.0000
  H   H44       1.0  0.59018  0.15624  0.18687  1.0000
  C   C73       1.0  0.83616  0.42879  0.24819  1.0000
  C   C74       1.0  0.83734  0.40490  0.25399  1.0000
  H   H45       1.0  0.83437  0.39380  0.19704  1.0000
  H   H46       1.0  0.83267  0.43447  0.18697  1.0000
  C   C75       1.0  0.56006  0.40771  0.24821  1.0000
  C   C76       1.0  0.58393  0.43280  0.25395  1.0000
  H   H47       1.0  0.59504  0.44093  0.19699  1.0000
  H   H48       1.0  0.55437  0.39853  0.18701  1.0000
  C   C77       1.0  0.93832  0.85288  0.35905  1.0000
  C   C78       1.0  0.95160  0.88132  0.35828  1.0000
  C   C79       1.0  0.96715  0.93985  0.38967  1.0000
  C   C80       1.0  0.97948  0.96778  0.38472  1.0000
  C   C81       1.0  0.96398  0.98082  0.38225  1.0000
  C   C82       1.0  0.97647  0.00935  0.38206  1.0000
  C   C83       1.0  0.00504  0.02480  0.38603  1.0000
  C   C84       1.0  0.02095  0.01222  0.38773  1.0000
  C   C85       1.0  0.00795  0.98368  0.38799  1.0000
  C   C86       1.0  0.04886  0.02782  0.39363  1.0000
  C   C87       1.0  0.09375  0.04328  0.33437  1.0000
  C   C88       1.0  0.10748  0.07065  0.36207  1.0000
  C   C89       1.0  0.13591  0.08586  0.36237  1.0000
  C   C90       1.0  0.96047  0.02142  0.38325  1.0000
  C   C91       1.0  0.94892  0.05454  0.33528  1.0000
  C   C92       1.0  0.96013  0.08190  0.36062  1.0000
  C   C93       1.0  0.94421  0.09436  0.36040  1.0000
  H   H49       1.0  0.94876  0.84358  0.37931  1.0000
  H   H50       1.0  0.97140  0.89187  0.37786  1.0000
  H   H51       1.0  0.01933  0.97440  0.39151  1.0000
  H   H52       1.0  0.94329  0.96934  0.38166  1.0000
  H   H53       1.0  0.01440  0.04547  0.38851  1.0000
  H   H54       1.0  0.14522  0.10571  0.38163  1.0000
  H   H55       1.0  0.09692  0.07995  0.38102  1.0000
  H   H56       1.0  0.95294  0.11430  0.37813  1.0000
  H   H57       1.0  0.98000  0.09304  0.37932  1.0000
  H   H58       1.0  0.05644  0.03960  0.44709  1.0000
  H   H59       1.0  0.97095  0.93213  0.44359  1.0000
  H   H60       1.0  0.94430  0.01321  0.42284  1.0000
  C   C94       1.0  0.49764  0.35816  0.35093  1.0000
  C   C95       1.0  0.47759  0.33060  0.34790  1.0000
  C   C96       1.0  0.45089  0.26954  0.38420  1.0000
  C   C97       1.0  0.43775  0.24157  0.38649  1.0000
  C   C98       1.0  0.45317  0.22857  0.39380  1.0000
  C   C99       1.0  0.44060  0.20012  0.39852  1.0000
  C   C100      1.0  0.41209  0.18459  0.39686  1.0000
  C   C101      1.0  0.39618  0.19717  0.38997  1.0000
  C   C102      1.0  0.40928  0.22577  0.38583  1.0000
  C   C103      1.0  0.36817  0.18141  0.39237  1.0000
  C   C104      1.0  0.32365  0.16775  0.33522  1.0000
  C   C105      1.0  0.31025  0.13920  0.34082  1.0000
  C   C106      1.0  0.28183  0.12377  0.34026  1.0000
  C   C107      1.0  0.45678  0.18856  0.40779  1.0000
  C   C108      1.0  0.47917  0.16634  0.34600  1.0000
  C   C109      1.0  0.47325  0.13917  0.34422  1.0000
  C   C110      1.0  0.49426  0.13299  0.34210  1.0000
  H   H61       1.0  0.49285  0.37180  0.37700  1.0000
  H   H62       1.0  0.45871  0.32488  0.37198  1.0000
  H   H63       1.0  0.39804  0.23519  0.38295  1.0000
  H   H64       1.0  0.47387  0.24002  0.39580  1.0000
  H   H65       1.0  0.40287  0.16395  0.40157  1.0000
  H   H66       1.0  0.27264  0.10313  0.34348  1.0000
  H   H67       1.0  0.32106  0.12935  0.34403  1.0000
  H   H68       1.0  0.48955  0.11319  0.34093  1.0000
  H   H69       1.0  0.45363  0.12367  0.34463  1.0000
  H   H70       1.0  0.36012  0.16769  0.44076  1.0000
  H   H71       1.0  0.45271  0.27908  0.44157  1.0000
  H   H72       1.0  0.46990  0.19515  0.45824  1.0000
  C   C111      1.0  0.63055  0.13986  0.35079  1.0000
  C   C112      1.0  0.65810  0.14739  0.34786  1.0000
  C   C113      1.0  0.71912  0.18164  0.38430  1.0000
  C   C114      1.0  0.74708  0.19655  0.38697  1.0000
  C   C115      1.0  0.75999  0.22498  0.39414  1.0000
  C   C116      1.0  0.78841  0.24094  0.39942  1.0000
  C   C117      1.0  0.80402  0.22803  0.39860  1.0000
  C   C118      1.0  0.79152  0.19954  0.39188  1.0000
  C   C119      1.0  0.76295  0.18395  0.38695  1.0000
  C   C120      1.0  0.80729  0.18735  0.39488  1.0000
  C   C121      1.0  0.82226  0.15777  0.33461  1.0000
  C   C122      1.0  0.85047  0.17271  0.35003  1.0000
  C   C123      1.0  0.86611  0.15995  0.34876  1.0000
  C   C124      1.0  0.79988  0.26867  0.40826  1.0000
  C   C125      1.0  0.82243  0.31331  0.34660  1.0000
  C   C126      1.0  0.84961  0.33455  0.34565  1.0000
  C   C127      1.0  0.85583  0.36175  0.34330  1.0000
  H   H73       1.0  0.61692  0.12143  0.37688  1.0000
  H   H74       1.0  0.66383  0.13424  0.37201  1.0000
  H   H75       1.0  0.75363  0.16329  0.38401  1.0000
  H   H76       1.0  0.74849  0.23417  0.39562  1.0000
  H   H77       1.0  0.82464  0.23949  0.40373  1.0000
  H   H78       1.0  0.88652  0.17133  0.35914  1.0000
  H   H79       1.0  0.85999  0.19312  0.36099  1.0000
  H   H80       1.0  0.87564  0.37683  0.34280  1.0000
  H   H81       1.0  0.86508  0.33039  0.34688  1.0000
  H   H82       1.0  0.82015  0.19224  0.44563  1.0000
  H   H83       1.0  0.70954  0.17375  0.44146  1.0000
  H   H84       1.0  0.79319  0.27526  0.45828  1.0000
  C   C128      1.0  0.84886  0.49119  0.35090  1.0000
  C   C129      1.0  0.84123  0.51115  0.34802  1.0000
  C   C130      1.0  0.80681  0.53775  0.38452  1.0000
  C   C131      1.0  0.79204  0.55094  0.38693  1.0000
  C   C132      1.0  0.76362  0.53555  0.39415  1.0000
  C   C133      1.0  0.74778  0.54816  0.39878  1.0000
  C   C134      1.0  0.76080  0.57668  0.39706  1.0000
  C   C135      1.0  0.78930  0.59257  0.39026  1.0000
  C   C136      1.0  0.80475  0.57943  0.38627  1.0000
  C   C137      1.0  0.80158  0.62060  0.39242  1.0000
  C   C138      1.0  0.83259  0.66509  0.33548  1.0000
  C   C139      1.0  0.81733  0.67841  0.33793  1.0000
  C   C140      1.0  0.83025  0.70683  0.33684  1.0000
  C   C141      1.0  0.72005  0.53200  0.40791  1.0000
  C   C142      1.0  0.67545  0.50958  0.34606  1.0000
  C   C143      1.0  0.65421  0.51551  0.34394  1.0000
  C   C144      1.0  0.62702  0.49450  0.34183  1.0000
  H   H85       1.0  0.86731  0.49606  0.37695  1.0000
  H   H86       1.0  0.85433  0.53004  0.37219  1.0000
  H   H87       1.0  0.82541  0.59064  0.38341  1.0000
  H   H88       1.0  0.75434  0.51484  0.39613  1.0000
  H   H89       1.0  0.74941  0.58592  0.40163  1.0000
  H   H90       1.0  0.81875  0.71597  0.33764  1.0000
  H   H91       1.0  0.79665  0.66754  0.33911  1.0000
  H   H92       1.0  0.61194  0.49921  0.34040  1.0000
  H   H93       1.0  0.65835  0.53514  0.34407  1.0000
  H   H94       1.0  0.79571  0.62869  0.44011  1.0000
  H   H95       1.0  0.81486  0.53624  0.44159  1.0000
  H   H96       1.0  0.71347  0.51895  0.45859  1.0000
  C   C145      1.0  0.19467  0.10035  0.41077  1.0000
  C   C146      1.0  0.22302  0.11557  0.41050  1.0000
  H   H97       1.0  0.23293  0.12265  0.47003  1.0000
  H   H98       1.0  0.18470  0.09658  0.47056  1.0000
  C   C147      1.0  0.89662  0.10353  0.40867  1.0000
  C   C148      1.0  0.88117  0.11641  0.40749  1.0000
  H   H99       1.0  0.87799  0.12348  0.46647  1.0000
  H   H100      1.0  0.90424  0.10159  0.46839  1.0000
  C   C149      1.0  0.89441  0.79429  0.40793  1.0000
  C   C150      1.0  0.88132  0.76593  0.40846  1.0000
  H   H101      1.0  0.87878  0.75618  0.46817  1.0000
  H   H102      1.0  0.90091  0.80441  0.46737  1.0000
  C   C151      1.0  0.54322  0.14860  0.33722  1.0000
  C   C152      1.0  0.55561  0.14585  0.41587  1.0000
  C   C153      1.0  0.58115  0.14712  0.40902  1.0000
  C   C154      1.0  0.59432  0.15118  0.32539  1.0000
  N   N7        1.0  0.59326  0.14586  0.48567  1.0000
  C   C155      1.0  0.58220  0.14289  0.56766  1.0000
  C   C156      1.0  0.55701  0.14138  0.57482  1.0000
  N   N8        1.0  0.54466  0.14310  0.49944  1.0000
  H   H103      1.0  0.59221  0.14197  0.62284  1.0000
  O   O4        1.0  0.54550  0.13857  0.65601  1.0000
  H   H104      1.0  0.52727  0.14212  0.50674  1.0000
  C   C157      1.0  0.84030  0.39517  0.33738  1.0000
  C   C158      1.0  0.84303  0.41029  0.41603  1.0000
  C   C159      1.0  0.84174  0.43456  0.40912  1.0000
  C   C160      1.0  0.83771  0.44368  0.32548  1.0000
  N   N9        1.0  0.84296  0.44793  0.48578  1.0000
  C   C161      1.0  0.84590  0.43982  0.56779  1.0000
  C   C162      1.0  0.84741  0.41614  0.57499  1.0000
  N   N10       1.0  0.84574  0.40208  0.49963  1.0000
  H   H105      1.0  0.84678  0.45075  0.62296  1.0000
  O   O5        1.0  0.85018  0.40742  0.65621  1.0000
  H   H106      1.0  0.84670  0.38566  0.50696  1.0000
  C   C163      1.0  0.59365  0.44551  0.33731  1.0000
  C   C164      1.0  0.57854  0.43313  0.41600  1.0000
  C   C165      1.0  0.55429  0.40757  0.40916  1.0000
  C   C166      1.0  0.54519  0.39438  0.32554  1.0000
  N   N11       1.0  0.54093  0.39544  0.48583  1.0000
  C   C167      1.0  0.54902  0.40652  0.56781  1.0000
  C   C168      1.0  0.57269  0.43174  0.57495  1.0000
  N   N12       1.0  0.58674  0.44410  0.49956  1.0000
  H   H107      1.0  0.53810  0.39650  0.62300  1.0000
  O   O6        1.0  0.58139  0.44326  0.65613  1.0000
  H   H108      1.0  0.60315  0.46150  0.50683  1.0000
