data_image0
_chemical_formula_structural       C3H2C3NO2HCH2CHC17H11C17H12C2HC2HC2H4C2HC2HC2H4C2HCH2C12H8C13H9C8H3NO2C8H3NO2C4H2
_chemical_formula_sum              "C102 H69 N3 O6"
_cell_length_a       44.9358
_cell_length_b       44.9104
_cell_length_c       14.9037
_cell_angle_alpha    90
_cell_angle_beta     90
_cell_angle_gamma    120.03

_space_group_name_H-M_alt    "P 1"
_space_group_IT_number       1

loop_
  _space_group_symop_operation_xyz
  'x, y, z'

loop_
  _atom_site_type_symbol
  _atom_site_label
  _atom_site_symmetry_multiplicity
  _atom_site_fract_x
  _atom_site_fract_y
  _atom_site_fract_z
  _atom_site_occupancy
  C   C1        1.0  0.04184  0.52373  0.26754  1.0000
  C   C2        1.0  0.07812  0.54056  0.26405  1.0000
  C   C3        1.0  0.02201  0.51806  0.18284  1.0000
  H   H1        1.0  0.03774  0.53609  0.13030  1.0000
  H   H2        1.0  0.01348  0.49201  0.15876  1.0000
  C   C4        1.0  0.08052  0.53907  0.42617  1.0000
  C   C5        1.0  0.04417  0.52229  0.43155  1.0000
  C   C6        1.0  0.02410  0.51283  0.35130  1.0000
  N   N1        1.0  0.02854  0.51742  0.51700  1.0000
  O   O1        1.0  0.03541  0.49925  0.56763  1.0000
  O   O2        1.0  0.03734  0.54551  0.55560  1.0000
  H   H3        1.0  0.09044  0.54762  0.20339  1.0000
  C   C7        1.0  0.09768  0.54779  0.34307  1.0000
  H   H4        1.0  0.09463  0.54558  0.48416  1.0000
  H   H5        1.0  0.13631  0.51819  0.34048  1.0000
  C   C8        1.0  0.13402  0.56425  0.33979  1.0000
  H   H6        1.0  0.14301  0.61534  0.34246  1.0000
  C   C9        1.0  0.45012  0.85402  0.30670  1.0000
  C   C10       1.0  0.43124  0.81779  0.30940  1.0000
  C   C11       1.0  0.37851  0.74169  0.29544  1.0000
  C   C12       1.0  0.35830  0.70619  0.30392  1.0000
  C   C13       1.0  0.32200  0.69001  0.30533  1.0000
  C   C14       1.0  0.30111  0.65374  0.30563  1.0000
  C   C15       1.0  0.31735  0.63365  0.30316  1.0000
  C   C16       1.0  0.35358  0.64913  0.30231  1.0000
  C   C17       1.0  0.37375  0.68544  0.30179  1.0000
  C   C18       1.0  0.36882  0.62889  0.29353  1.0000
  C   C19       1.0  0.40814  0.60985  0.34580  1.0000
  C   C20       1.0  0.39253  0.57642  0.30796  1.0000
  C   C21       1.0  0.40988  0.55755  0.30549  1.0000
  C   C22       1.0  0.26548  0.63886  0.29988  1.0000
  C   C23       1.0  0.20722  0.59694  0.34320  1.0000
  C   C24       1.0  0.18661  0.56064  0.34199  1.0000
  C   C25       1.0  0.15049  0.54449  0.34018  1.0000
  H   H7        1.0  0.47428  0.86585  0.27955  1.0000
  H   H8        1.0  0.44243  0.80457  0.28414  1.0000
  H   H9        1.0  0.39998  0.69691  0.29759  1.0000
  H   H10       1.0  0.31063  0.70490  0.30380  1.0000
  H   H11       1.0  0.30261  0.60739  0.29978  1.0000
  H   H12       1.0  0.39741  0.53321  0.27943  1.0000
  H   H13       1.0  0.36799  0.56504  0.28353  1.0000
  H   H14       1.0  0.19774  0.54556  0.34324  1.0000
  H   H15       1.0  0.36253  0.61391  0.23966  1.0000
  H   H16       1.0  0.39303  0.75045  0.24080  1.0000
  H   H17       1.0  0.25648  0.64909  0.25594  1.0000
  C   C26       1.0  0.55819  0.15349  0.34955  1.0000
  C   C27       1.0  0.57843  0.18962  0.35160  1.0000
  C   C28       1.0  0.63039  0.26465  0.30218  1.0000
  C   C29       1.0  0.65119  0.30033  0.30881  1.0000
  C   C30       1.0  0.68754  0.31664  0.30878  1.0000
  C   C31       1.0  0.70851  0.35290  0.30955  1.0000
  C   C32       1.0  0.69221  0.37294  0.30865  1.0000
  C   C33       1.0  0.65597  0.35764  0.30881  1.0000
  C   C34       1.0  0.63592  0.32128  0.30800  1.0000
  C   C35       1.0  0.64112  0.37845  0.30223  1.0000
  C   C36       1.0  0.59832  0.39411  0.34008  1.0000
  C   C37       1.0  0.61775  0.43016  0.35185  1.0000
  C   C38       1.0  0.60179  0.45032  0.34981  1.0000
  C   C39       1.0  0.74420  0.36774  0.30373  1.0000
  C   C40       1.0  0.80260  0.41067  0.34119  1.0000
  C   C41       1.0  0.82321  0.44605  0.32131  1.0000
  C   C42       1.0  0.85930  0.46185  0.31920  1.0000
  H   H18       1.0  0.53220  0.14258  0.35781  1.0000
  H   H19       1.0  0.56663  0.20372  0.36316  1.0000
  H   H20       1.0  0.60968  0.30981  0.30461  1.0000
  H   H21       1.0  0.69898  0.30184  0.30598  1.0000
  H   H22       1.0  0.70699  0.39920  0.30567  1.0000
  H   H23       1.0  0.61681  0.47630  0.35854  1.0000
  H   H24       1.0  0.64362  0.44201  0.36385  1.0000
  H   H25       1.0  0.87329  0.48770  0.30676  1.0000
  H   H26       1.0  0.81213  0.46079  0.30924  1.0000
  H   H27       1.0  0.65245  0.39865  0.26136  1.0000
  H   H28       1.0  0.61032  0.25579  0.26090  1.0000
  H   H29       1.0  0.75316  0.35614  0.26412  1.0000
  C   C43       1.0  0.48148  0.51702  0.26940  1.0000
  C   C44       1.0  0.46406  0.53593  0.26695  1.0000
  H   H30       1.0  0.45462  0.53892  0.20722  1.0000
  C   C45       1.0  0.52358  0.45030  0.27557  1.0000
  C   C46       1.0  0.50646  0.46953  0.27918  1.0000
  H   H31       1.0  0.51762  0.43275  0.22512  1.0000
  C   C47       1.0  0.48117  0.46506  0.20836  1.0000
  C   C48       1.0  0.48408  0.50013  0.18593  1.0000
  H   H32       1.0  0.45531  0.44723  0.23301  1.0000
  H   H33       1.0  0.48522  0.45430  0.14684  1.0000
  H   H34       1.0  0.46393  0.49577  0.13777  1.0000
  H   H35       1.0  0.50892  0.51701  0.15432  1.0000
  C   C49       1.0  0.49107  0.96621  0.27077  1.0000
  C   C50       1.0  0.47206  0.92986  0.26860  1.0000
  H   H36       1.0  0.46905  0.91734  0.20898  1.0000
  C   C51       1.0  0.55804  0.07507  0.27644  1.0000
  C   C52       1.0  0.53871  0.03870  0.28021  1.0000
  H   H37       1.0  0.57564  0.08660  0.22607  1.0000
  C   C53       1.0  0.54314  0.01775  0.20970  1.0000
  C   C54       1.0  0.50805  0.98560  0.18726  1.0000
  H   H38       1.0  0.56088  0.00967  0.23466  1.0000
  H   H39       1.0  0.55398  0.03251  0.14813  1.0000
  H   H40       1.0  0.51239  0.96971  0.13936  1.0000
  H   H41       1.0  0.49128  0.99361  0.15533  1.0000
  C   C55       1.0  0.93330  0.48294  0.27264  1.0000
  C   C56       1.0  0.96964  0.50005  0.27582  1.0000
  H   H42       1.0  0.92158  0.48697  0.21889  1.0000
  C   C57       1.0  0.99034  0.52238  0.19990  1.0000
  H   H43       1.0  0.99893  0.54915  0.21708  1.0000
  H   H44       1.0  0.97527  0.51620  0.13813  1.0000
  C   C58       1.0  0.43681  0.87381  0.34471  1.0000
  C   C59       1.0  0.39807  0.80003  0.34862  1.0000
  C   C60       1.0  0.38470  0.81996  0.38564  1.0000
  C   C61       1.0  0.40374  0.85614  0.38402  1.0000
  C   C62       1.0  0.37898  0.76418  0.35599  1.0000
  C   C63       1.0  0.39140  0.62895  0.35305  1.0000
  C   C64       1.0  0.44163  0.62346  0.38181  1.0000
  C   C65       1.0  0.44315  0.57112  0.34259  1.0000
  C   C66       1.0  0.45876  0.60443  0.38056  1.0000
  C   C67       1.0  0.24283  0.61211  0.35001  1.0000
  C   C68       1.0  0.19051  0.61660  0.34297  1.0000
  C   C69       1.0  0.15436  0.60048  0.34107  1.0000
  H   H45       1.0  0.39311  0.86952  0.41181  1.0000
  H   H46       1.0  0.36093  0.80829  0.41516  1.0000
  H   H47       1.0  0.20450  0.64287  0.34620  1.0000
  H   H48       1.0  0.45388  0.64742  0.41033  1.0000
  H   H49       1.0  0.48289  0.61522  0.40765  1.0000
  H   H50       1.0  0.39735  0.64449  0.40589  1.0000
  H   H51       1.0  0.36386  0.75457  0.40957  1.0000
  H   H52       1.0  0.25182  0.60179  0.39371  1.0000
  C   C70       1.0  0.57320  0.13257  0.33662  1.0000
  C   C71       1.0  0.61449  0.20615  0.34055  1.0000
  C   C72       1.0  0.62961  0.18545  0.32715  1.0000
  C   C73       1.0  0.60929  0.14933  0.32469  1.0000
  C   C74       1.0  0.63527  0.24166  0.34830  1.0000
  C   C75       1.0  0.61308  0.37338  0.34784  1.0000
  C   C76       1.0  0.56251  0.37890  0.32609  1.0000
  C   C77       1.0  0.56589  0.43523  0.33623  1.0000
  C   C78       1.0  0.54665  0.39914  0.32364  1.0000
  C   C79       1.0  0.76713  0.39608  0.34847  1.0000
  C   C80       1.0  0.81915  0.39157  0.35927  1.0000
  C   C81       1.0  0.87609  0.44297  0.33810  1.0000
  C   C82       1.0  0.85526  0.40749  0.35770  1.0000
  H   H53       1.0  0.62141  0.13532  0.31734  1.0000
  H   H54       1.0  0.65569  0.19648  0.32020  1.0000
  H   H55       1.0  0.80506  0.36604  0.37550  1.0000
  H   H56       1.0  0.54753  0.35282  0.31866  1.0000
  H   H57       1.0  0.52055  0.38695  0.31585  1.0000
  H   H58       1.0  0.86624  0.39278  0.37120  1.0000
  H   H59       1.0  0.60154  0.35326  0.38880  1.0000
  H   H60       1.0  0.65525  0.25022  0.38969  1.0000
  H   H61       1.0  0.75860  0.40795  0.38831  1.0000
  C   C83       1.0  0.46021  0.55153  0.34479  1.0000
  C   C84       1.0  0.47282  0.54629  0.42638  1.0000
  C   C85       1.0  0.48985  0.52697  0.43112  1.0000
  C   C86       1.0  0.49605  0.51346  0.35108  1.0000
  C   C87       1.0  0.51385  0.49401  0.34889  1.0000
  C   C88       1.0  0.54110  0.50040  0.40810  1.0000
  C   C89       1.0  0.55805  0.48127  0.40396  1.0000
  C   C90       1.0  0.54925  0.45537  0.33860  1.0000
  H   H62       1.0  0.54991  0.51987  0.45379  1.0000
  H   H63       1.0  0.57679  0.48631  0.45032  1.0000
  H   H64       1.0  0.46852  0.55568  0.48456  1.0000
  N   N2        1.0  0.49815  0.51930  0.51660  1.0000
  O   O3        1.0  0.51811  0.54604  0.55973  1.0000
  O   O4        1.0  0.47178  0.50143  0.56328  1.0000
  C   C91       1.0  0.45643  0.91049  0.34656  1.0000
  C   C92       1.0  0.46175  0.92847  0.42799  1.0000
  C   C93       1.0  0.48110  0.96485  0.43244  1.0000
  C   C94       1.0  0.49463  0.98446  0.35225  1.0000
  C   C95       1.0  0.51416  0.02173  0.34982  1.0000
  C   C96       1.0  0.50777  0.04270  0.40863  1.0000
  C   C97       1.0  0.52698  0.07879  0.40430  1.0000
  C   C98       1.0  0.55296  0.09578  0.33911  1.0000
  H   H65       1.0  0.48825  0.03210  0.45418  1.0000
  H   H66       1.0  0.52194  0.09257  0.45038  1.0000
  H   H67       1.0  0.45236  0.91487  0.48629  1.0000
  N   N3        1.0  0.48877  0.98094  0.51778  1.0000
  O   O5        1.0  0.46204  0.97425  0.56077  1.0000
  O   O6        1.0  0.50658  0.97245  0.56472  1.0000
  C   C99       1.0  0.98685  0.49524  0.34997  1.0000
  C   C100      1.0  0.96611  0.47036  0.41480  1.0000
  C   C101      1.0  0.93001  0.45326  0.41084  1.0000
  C   C102      1.0  0.91284  0.45965  0.34057  1.0000
  H   H68       1.0  0.97688  0.46326  0.46454  1.0000
  H   H69       1.0  0.91636  0.43623  0.46083  1.0000
