data_image0
_chemical_formula_structural       NCHNCHNCHNCHC2NC2NC2NC2N2CHNCHC2NC2NC2NC2N2CHNCHNCHNCHC2NC2NC2NC2NC2NC2NC2NC2NCNCNCNCNCNCNCNCNCNCNCNCNCNCNCNCNCNCNCNCNCNCNCNCNCNCNCNCNCNCNCNCNCNCNCNCNC2NC2NC2NC2NC2NC2NC2NC2N2CHNCHC2NC2NC2NC2N2CHNCHC2NC2NC2NC2NC2NC2NC2NC2N2CHNCHNCHNCHNCHNCHNCHNCHC2NC2NC2NC2N2CHNCHC2NC2NC2NC2N2CHNCHNCHNCHC2NC2NC2NC2NC2NC2NC2NC2NCNCNCNCNCNCNCNCNCNCNCNCNCNCNCNCNCNCNCNCNCNCNCNCNCNCNCNCNCNCNCNCNCNCNCNCNC2NC2NC2NC2NC2NC2NC2NC2N2CHNCHC2NC2NC2NC2N2CHNCHC2NC2NC2NC2NC2NC2NC2NC2N2CHNCHNCHNCH
_chemical_formula_sum              "N180 C252 H36"
_cell_length_a       42.1922
_cell_length_b       54.7005
_cell_length_c       14.9026
_cell_angle_alpha    90
_cell_angle_beta     90
_cell_angle_gamma    90

_space_group_name_H-M_alt    "P 1"
_space_group_IT_number       1

loop_
  _space_group_symop_operation_xyz
  'x, y, z'

loop_
  _atom_site_type_symbol
  _atom_site_label
  _atom_site_symmetry_multiplicity
  _atom_site_fract_x
  _atom_site_fract_y
  _atom_site_fract_z
  _atom_site_occupancy
  N   N1        1.0  0.26636  0.15041  0.35959  1.0000
  C   C1        1.0  0.23412  0.14756  0.35662  1.0000
  H   H1        1.0  0.22466  0.13153  0.33387  1.0000
  N   N2        1.0  0.23979  0.85472  0.36508  1.0000
  C   C2        1.0  0.27195  0.85780  0.35942  1.0000
  H   H2        1.0  0.28117  0.87480  0.34839  1.0000
  N   N3        1.0  0.02091  0.65317  0.33965  1.0000
  C   C3        1.0  0.48859  0.65092  0.33717  1.0000
  H   H3        1.0  0.47853  0.63419  0.32631  1.0000
  N   N4        1.0  0.48623  0.35371  0.33739  1.0000
  C   C4        1.0  0.01865  0.35584  0.33838  1.0000
  H   H4        1.0  0.02893  0.37232  0.32462  1.0000
  C   C5        1.0  0.05054  0.10963  0.31677  1.0000
  C   C6        1.0  0.10448  0.14039  0.32573  1.0000
  N   N5        1.0  0.07482  0.14902  0.31185  1.0000
  C   C7        1.0  0.04824  0.13549  0.30595  1.0000
  C   C8        1.0  0.02325  0.14863  0.28913  1.0000
  N   N6        1.0  0.00208  0.16109  0.27318  1.0000
  C   C9        1.0  0.45349  0.89824  0.30412  1.0000
  C   C10       1.0  0.40074  0.86662  0.31227  1.0000
  N   N7        1.0  0.42975  0.85896  0.28543  1.0000
  C   C11       1.0  0.45568  0.87319  0.27845  1.0000
  C   C12       1.0  0.47989  0.86245  0.24121  1.0000
  N   N8        1.0  0.50088  0.85288  0.20691  1.0000
  N   N9        1.0  0.44454  0.13062  0.31968  1.0000
  C   C13       1.0  0.42257  0.14844  0.32137  1.0000
  H   H5        1.0  0.43017  0.16609  0.31543  1.0000
  N   N10       1.0  0.09320  0.90480  0.34888  1.0000
  C   C14       1.0  0.11932  0.88995  0.35312  1.0000
  H   H6        1.0  0.14134  0.89723  0.34332  1.0000
  C   C15       1.0  0.31119  0.60723  0.33623  1.0000
  C   C16       1.0  0.35964  0.64306  0.33102  1.0000
  N   N11       1.0  0.36622  0.61861  0.33507  1.0000
  C   C17       1.0  0.34373  0.60055  0.33695  1.0000
  C   C18       1.0  0.35341  0.57805  0.34130  1.0000
  N   N12       1.0  0.36197  0.55815  0.34503  1.0000
  C   C19       1.0  0.19758  0.39818  0.33223  1.0000
  C   C20       1.0  0.14873  0.36251  0.33296  1.0000
  N   N13       1.0  0.14254  0.38688  0.34103  1.0000
  C   C21       1.0  0.16510  0.40483  0.34049  1.0000
  C   C22       1.0  0.15521  0.42690  0.35574  1.0000
  N   N14       1.0  0.14574  0.44608  0.37190  1.0000
  N   N15       1.0  0.16961  0.60215  0.34231  1.0000
  C   C23       1.0  0.14318  0.61676  0.34279  1.0000
  H   H7        1.0  0.12124  0.60901  0.33750  1.0000
  N   N16       1.0  0.30424  0.37471  0.32697  1.0000
  C   C24       1.0  0.32653  0.35703  0.32608  1.0000
  H   H8        1.0  0.31895  0.33931  0.32364  1.0000
  N   N17       1.0  0.09741  0.25976  0.33725  1.0000
  C   C25       1.0  0.10174  0.23514  0.33727  1.0000
  H   H9        1.0  0.08269  0.22385  0.32871  1.0000
  N   N18       1.0  0.40948  0.74643  0.32135  1.0000
  C   C26       1.0  0.40518  0.77105  0.31924  1.0000
  H   H10       1.0  0.42422  0.78229  0.30960  1.0000
  C   C27       1.0  0.38476  0.27727  0.32171  1.0000
  C   C28       1.0  0.36527  0.22833  0.34118  1.0000
  N   N19       1.0  0.39319  0.23426  0.30127  1.0000
  C   C29       1.0  0.40375  0.25754  0.29006  1.0000
  C   C30       1.0  0.43001  0.26006  0.24530  1.0000
  N   N20       1.0  0.45301  0.26224  0.20486  1.0000
  C   C31       1.0  0.12256  0.72901  0.34641  1.0000
  C   C32       1.0  0.13835  0.77826  0.37439  1.0000
  N   N21       1.0  0.11446  0.77173  0.31832  1.0000
  C   C33       1.0  0.10564  0.74821  0.30315  1.0000
  C   C34       1.0  0.08334  0.74495  0.24399  1.0000
  N   N22       1.0  0.06376  0.74206  0.19154  1.0000
  C   C35       1.0  0.00800  0.97721  0.33523  1.0000
  C   C36       1.0  0.00055  0.02883  0.33398  1.0000
  N   N23       1.0  0.02953  0.01784  0.33403  1.0000
  C   C37       1.0  0.03457  0.99324  0.33515  1.0000
  C   C38       1.0  0.06401  0.98626  0.33334  1.0000
  N   N24       1.0  0.09005  0.98018  0.33153  1.0000
  C   C39       1.0  0.25126  0.47780  0.33033  1.0000
  C   C40       1.0  0.25331  0.52953  0.33952  1.0000
  N   N25       1.0  0.22726  0.51730  0.31016  1.0000
  C   C41       1.0  0.22493  0.49253  0.30450  1.0000
  C   C42       1.0  0.19930  0.48443  0.26645  1.0000
  N   N26       1.0  0.17692  0.47783  0.22993  1.0000
  C   C43       1.0  0.18167  0.17064  0.36265  1.0000
  N   N27       1.0  0.16003  0.15254  0.34761  1.0000
  C   C44       1.0  0.12866  0.15802  0.33524  1.0000
  N   N28       1.0  0.11977  0.18209  0.33590  1.0000
  C   C45       1.0  0.14049  0.20061  0.34962  1.0000
  N   N29       1.0  0.17088  0.19407  0.36328  1.0000
  C   C46       1.0  0.32474  0.83500  0.35072  1.0000
  N   N30       1.0  0.34600  0.85349  0.33850  1.0000
  C   C47       1.0  0.37729  0.84848  0.32253  1.0000
  N   N31       1.0  0.38678  0.82452  0.31928  1.0000
  C   C48       1.0  0.36649  0.80564  0.33210  1.0000
  N   N32       1.0  0.33610  0.81178  0.34743  1.0000
  C   C49       1.0  0.31445  0.17436  0.37232  1.0000
  N   N33       1.0  0.33566  0.15584  0.35795  1.0000
  C   C50       1.0  0.36706  0.16056  0.34203  1.0000
  N   N34       1.0  0.37618  0.18452  0.33699  1.0000
  C   C51       1.0  0.35602  0.20349  0.34909  1.0000
  N   N35       1.0  0.32566  0.19759  0.36703  1.0000
  C   C52       1.0  0.19154  0.83086  0.37696  1.0000
  N   N36       1.0  0.17063  0.84993  0.37005  1.0000
  C   C53       1.0  0.13854  0.84597  0.36897  1.0000
  N   N37       1.0  0.12805  0.82230  0.37177  1.0000
  C   C54       1.0  0.14788  0.80297  0.37880  1.0000
  N   N38       1.0  0.17899  0.80809  0.38105  1.0000
  C   C55       1.0  0.43659  0.67480  0.33921  1.0000
  N   N39       1.0  0.41488  0.65635  0.33526  1.0000
  C   C56       1.0  0.38317  0.66141  0.33183  1.0000
  N   N40       1.0  0.37403  0.68540  0.33167  1.0000
  C   C57       1.0  0.39464  0.70436  0.33469  1.0000
  N   N41       1.0  0.42551  0.69818  0.33868  1.0000
  C   C58       1.0  0.07068  0.33182  0.34761  1.0000
  N   N42       1.0  0.09288  0.34995  0.34080  1.0000
  C   C59       1.0  0.12460  0.34459  0.33683  1.0000
  N   N43       1.0  0.13327  0.32056  0.33912  1.0000
  C   C60       1.0  0.11234  0.30188  0.34569  1.0000
  N   N44       1.0  0.08150  0.30835  0.34986  1.0000
  C   C61       1.0  0.07015  0.67599  0.34843  1.0000
  N   N45       1.0  0.09114  0.65687  0.34691  1.0000
  C   C62       1.0  0.12326  0.66091  0.34719  1.0000
  N   N46       1.0  0.13365  0.68468  0.34725  1.0000
  C   C63       1.0  0.11372  0.70403  0.34396  1.0000
  N   N47       1.0  0.08274  0.69870  0.34592  1.0000
  C   C64       1.0  0.43659  0.33083  0.34166  1.0000
  N   N48       1.0  0.41498  0.34960  0.33760  1.0000
  C   C65       1.0  0.38295  0.34519  0.33011  1.0000
  N   N49       1.0  0.37352  0.32130  0.32444  1.0000
  C   C66       1.0  0.39394  0.30223  0.32351  1.0000
  N   N50       1.0  0.42467  0.30794  0.33350  1.0000
  C   C67       1.0  0.02407  0.09364  0.31961  1.0000
  N   N51       1.0  0.02508  0.06879  0.32590  1.0000
  C   C68       1.0  0.99812  0.05484  0.33083  1.0000
  N   N52       1.0  0.46934  0.06657  0.33119  1.0000
  C   C69       1.0  0.46695  0.09141  0.32583  1.0000
  N   N53       1.0  0.99481  0.10357  0.32002  1.0000
  C   C70       1.0  0.48035  0.91345  0.31589  1.0000
  N   N54       1.0  0.48103  0.93828  0.32185  1.0000
  C   C71       1.0  0.50876  0.95098  0.33422  1.0000
  N   N55       1.0  0.03623  0.93775  0.34507  1.0000
  C   C72       1.0  0.03646  0.91279  0.34600  1.0000
  N   N56       1.0  0.50826  0.90210  0.32960  1.0000
  C   C73       1.0  0.28365  0.59244  0.33959  1.0000
  N   N57       1.0  0.28196  0.56765  0.34005  1.0000
  C   C74       1.0  0.25355  0.55556  0.34125  1.0000
  N   N58       1.0  0.22604  0.56912  0.34258  1.0000
  C   C75       1.0  0.22641  0.59414  0.34470  1.0000
  N   N59       1.0  0.25555  0.60427  0.34227  1.0000
  C   C76       1.0  0.22481  0.41338  0.33145  1.0000
  N   N60       1.0  0.22496  0.43824  0.33159  1.0000
  C   C77       1.0  0.25234  0.45162  0.33040  1.0000
  N   N61       1.0  0.28059  0.43914  0.33106  1.0000
  C   C78       1.0  0.28203  0.41418  0.33056  1.0000
  N   N62       1.0  0.25365  0.40245  0.33032  1.0000
  C   C79       1.0  0.28135  0.17158  0.38416  1.0000
  C   C80       1.0  0.21467  0.16802  0.37422  1.0000
  N   N63       1.0  0.22992  0.18827  0.40360  1.0000
  C   C81       1.0  0.26134  0.19111  0.41187  1.0000
  C   C82       1.0  0.26915  0.21167  0.44980  1.0000
  N   N64       1.0  0.27448  0.22974  0.48601  1.0000
  C   C83       1.0  0.22503  0.83263  0.37665  1.0000
  C   C84       1.0  0.29170  0.83699  0.36297  1.0000
  N   N65       1.0  0.27659  0.81549  0.37622  1.0000
  C   C85       1.0  0.24537  0.81193  0.38452  1.0000
  C   C86       1.0  0.23864  0.78888  0.39523  1.0000
  N   N66       1.0  0.23418  0.76830  0.40378  1.0000
  C   C87       1.0  0.03662  0.67483  0.35145  1.0000
  C   C88       1.0  0.46976  0.67218  0.34425  1.0000
  N   N67       1.0  0.48572  0.69320  0.35914  1.0000
  C   C89       1.0  0.01718  0.69590  0.36434  1.0000
  C   C90       1.0  0.02513  0.71814  0.38621  1.0000
  N   N68       1.0  0.03142  0.73779  0.40679  1.0000
  C   C91       1.0  0.47007  0.33233  0.35143  1.0000
  C   C92       1.0  0.03738  0.33468  0.35111  1.0000
  N   N69       1.0  0.02094  0.31402  0.36920  1.0000
  C   C93       1.0  0.48931  0.31158  0.37183  1.0000
  C   C94       1.0  0.48059  0.28996  0.39903  1.0000
  N   N70       1.0  0.47351  0.27090  0.42445  1.0000
  N   N71       1.0  0.08050  0.10065  0.32867  1.0000
  C   C95       1.0  0.10727  0.11471  0.33224  1.0000
  H   H11       1.0  0.12871  0.10659  0.34340  1.0000
  N   N72       1.0  0.42392  0.90648  0.32593  1.0000
  C   C96       1.0  0.39754  0.89198  0.32836  1.0000
  H   H12       1.0  0.37645  0.89928  0.34875  1.0000
  C   C97       1.0  0.43924  0.10619  0.32763  1.0000
  C   C98       1.0  0.39046  0.14212  0.33402  1.0000
  N   N73       1.0  0.38431  0.11764  0.34160  1.0000
  C   C99       1.0  0.40686  0.09959  0.33806  1.0000
  C   C100      1.0  0.39751  0.07711  0.34689  1.0000
  N   N74       1.0  0.38926  0.05721  0.35459  1.0000
  C   C101      1.0  0.06266  0.89685  0.35898  1.0000
  C   C102      1.0  0.11523  0.86451  0.36574  1.0000
  N   N75       1.0  0.08502  0.85714  0.38023  1.0000
  C   C103      1.0  0.05910  0.87147  0.37882  1.0000
  C   C104      1.0  0.03373  0.86035  0.40737  1.0000
  N   N76       1.0  0.01185  0.85033  0.43477  1.0000
  N   N77       1.0  0.30544  0.63162  0.33110  1.0000
  C   C105      1.0  0.32730  0.64943  0.32795  1.0000
  H   H13       1.0  0.31954  0.66706  0.32422  1.0000
  N   N78       1.0  0.20327  0.37378  0.32443  1.0000
  C   C106      1.0  0.18101  0.35608  0.32430  1.0000
  H   H14       1.0  0.18836  0.33840  0.31754  1.0000
  C   C107      1.0  0.20015  0.61050  0.34786  1.0000
  C   C108      1.0  0.14675  0.64244  0.34783  1.0000
  N   N79       1.0  0.17701  0.65035  0.35495  1.0000
  C   C109      1.0  0.20328  0.63644  0.35586  1.0000
  C   C110      1.0  0.22859  0.64956  0.36880  1.0000
  N   N80       1.0  0.24979  0.66222  0.38192  1.0000
  C   C111      1.0  0.30965  0.39922  0.33042  1.0000
  C   C112      1.0  0.35899  0.36346  0.32968  1.0000
  N   N81       1.0  0.36502  0.38801  0.33333  1.0000
  C   C113      1.0  0.34223  0.40593  0.33340  1.0000
  C   C114      1.0  0.35176  0.42848  0.33702  1.0000
  N   N82       1.0  0.36019  0.44842  0.34015  1.0000
  C   C115      1.0  0.12094  0.27667  0.34766  1.0000
  C   C116      1.0  0.13261  0.22583  0.34913  1.0000
  N   N83       1.0  0.15610  0.24263  0.35999  1.0000
  C   C117      1.0  0.15202  0.26724  0.35969  1.0000
  C   C118      1.0  0.17738  0.28019  0.37344  1.0000
  N   N84       1.0  0.20011  0.29119  0.38634  1.0000
  C   C119      1.0  0.38599  0.72956  0.33397  1.0000
  C   C120      1.0  0.37439  0.78043  0.33128  1.0000
  N   N85       1.0  0.35096  0.76366  0.34441  1.0000
  C   C121      1.0  0.35497  0.73905  0.34601  1.0000
  C   C122      1.0  0.32969  0.72620  0.36209  1.0000
  N   N86       1.0  0.30702  0.71533  0.37710  1.0000
  N   N87       1.0  0.35657  0.27133  0.35994  1.0000
  C   C123      1.0  0.34608  0.24805  0.36958  1.0000
  H   H15       1.0  0.32466  0.24530  0.39940  1.0000
  N   N88       1.0  0.14661  0.73561  0.40206  1.0000
  C   C124      1.0  0.15525  0.75917  0.41676  1.0000
  H   H16       1.0  0.17339  0.76272  0.46015  1.0000
  N   N89       1.0  0.97905  0.98836  0.33485  1.0000
  C   C125      1.0  0.47418  0.01293  0.33462  1.0000
  H   H17       1.0  0.45148  0.01942  0.33390  1.0000
  N   N90       1.0  0.27751  0.49018  0.35812  1.0000
  C   C126      1.0  0.27973  0.51495  0.36302  1.0000
  H   H18       1.0  0.30040  0.52256  0.38525  1.0000
  N   N91       1.0  0.76636  0.15041  0.35959  1.0000
  C   C127      1.0  0.73412  0.14756  0.35662  1.0000
  H   H19       1.0  0.72466  0.13153  0.33387  1.0000
  N   N92       1.0  0.73979  0.85472  0.36508  1.0000
  C   C128      1.0  0.77195  0.85780  0.35942  1.0000
  H   H20       1.0  0.78117  0.87480  0.34839  1.0000
  N   N93       1.0  0.52091  0.65317  0.33965  1.0000
  C   C129      1.0  0.98859  0.65092  0.33717  1.0000
  H   H21       1.0  0.97854  0.63419  0.32631  1.0000
  N   N94       1.0  0.98623  0.35371  0.33739  1.0000
  C   C130      1.0  0.51865  0.35584  0.33838  1.0000
  H   H22       1.0  0.52892  0.37232  0.32462  1.0000
  C   C131      1.0  0.55054  0.10963  0.31677  1.0000
  C   C132      1.0  0.60448  0.14039  0.32573  1.0000
  N   N95       1.0  0.57482  0.14902  0.31185  1.0000
  C   C133      1.0  0.54824  0.13549  0.30595  1.0000
  C   C134      1.0  0.52325  0.14863  0.28913  1.0000
  N   N96       1.0  0.50208  0.16109  0.27318  1.0000
  C   C135      1.0  0.95349  0.89824  0.30412  1.0000
  C   C136      1.0  0.90074  0.86662  0.31227  1.0000
  N   N97       1.0  0.92975  0.85896  0.28543  1.0000
  C   C137      1.0  0.95568  0.87319  0.27845  1.0000
  C   C138      1.0  0.97989  0.86245  0.24121  1.0000
  N   N98       1.0  0.00088  0.85288  0.20691  1.0000
  N   N99       1.0  0.94454  0.13062  0.31968  1.0000
  C   C139      1.0  0.92257  0.14844  0.32137  1.0000
  H   H23       1.0  0.93017  0.16609  0.31543  1.0000
  N   N100      1.0  0.59320  0.90480  0.34888  1.0000
  C   C140      1.0  0.61932  0.88995  0.35312  1.0000
  H   H24       1.0  0.64134  0.89723  0.34332  1.0000
  C   C141      1.0  0.81119  0.60723  0.33623  1.0000
  C   C142      1.0  0.85964  0.64306  0.33102  1.0000
  N   N101      1.0  0.86622  0.61861  0.33507  1.0000
  C   C143      1.0  0.84373  0.60055  0.33695  1.0000
  C   C144      1.0  0.85341  0.57805  0.34130  1.0000
  N   N102      1.0  0.86197  0.55815  0.34503  1.0000
  C   C145      1.0  0.69758  0.39818  0.33223  1.0000
  C   C146      1.0  0.64873  0.36251  0.33296  1.0000
  N   N103      1.0  0.64254  0.38688  0.34103  1.0000
  C   C147      1.0  0.66510  0.40483  0.34049  1.0000
  C   C148      1.0  0.65521  0.42690  0.35574  1.0000
  N   N104      1.0  0.64574  0.44608  0.37190  1.0000
  N   N105      1.0  0.66961  0.60215  0.34231  1.0000
  C   C149      1.0  0.64318  0.61676  0.34279  1.0000
  H   H25       1.0  0.62124  0.60901  0.33750  1.0000
  N   N106      1.0  0.80424  0.37471  0.32697  1.0000
  C   C150      1.0  0.82653  0.35703  0.32608  1.0000
  H   H26       1.0  0.81895  0.33931  0.32364  1.0000
  N   N107      1.0  0.59741  0.25976  0.33725  1.0000
  C   C151      1.0  0.60174  0.23514  0.33727  1.0000
  H   H27       1.0  0.58269  0.22385  0.32871  1.0000
  N   N108      1.0  0.90948  0.74643  0.32135  1.0000
  C   C152      1.0  0.90518  0.77105  0.31924  1.0000
  H   H28       1.0  0.92422  0.78229  0.30960  1.0000
  C   C153      1.0  0.88476  0.27727  0.32171  1.0000
  C   C154      1.0  0.86527  0.22833  0.34118  1.0000
  N   N109      1.0  0.89319  0.23426  0.30127  1.0000
  C   C155      1.0  0.90374  0.25754  0.29006  1.0000
  C   C156      1.0  0.93001  0.26006  0.24530  1.0000
  N   N110      1.0  0.95301  0.26224  0.20486  1.0000
  C   C157      1.0  0.62256  0.72901  0.34641  1.0000
  C   C158      1.0  0.63835  0.77826  0.37439  1.0000
  N   N111      1.0  0.61446  0.77173  0.31832  1.0000
  C   C159      1.0  0.60564  0.74821  0.30315  1.0000
  C   C160      1.0  0.58334  0.74495  0.24399  1.0000
  N   N112      1.0  0.56376  0.74206  0.19154  1.0000
  C   C161      1.0  0.50800  0.97721  0.33523  1.0000
  C   C162      1.0  0.50055  0.02883  0.33398  1.0000
  N   N113      1.0  0.52953  0.01784  0.33403  1.0000
  C   C163      1.0  0.53457  0.99324  0.33515  1.0000
  C   C164      1.0  0.56401  0.98626  0.33334  1.0000
  N   N114      1.0  0.59005  0.98018  0.33153  1.0000
  C   C165      1.0  0.75126  0.47780  0.33033  1.0000
  C   C166      1.0  0.75331  0.52953  0.33952  1.0000
  N   N115      1.0  0.72726  0.51730  0.31016  1.0000
  C   C167      1.0  0.72493  0.49253  0.30450  1.0000
  C   C168      1.0  0.69930  0.48443  0.26645  1.0000
  N   N116      1.0  0.67692  0.47783  0.22993  1.0000
  C   C169      1.0  0.68167  0.17064  0.36265  1.0000
  N   N117      1.0  0.66003  0.15254  0.34761  1.0000
  C   C170      1.0  0.62866  0.15802  0.33524  1.0000
  N   N118      1.0  0.61977  0.18209  0.33590  1.0000
  C   C171      1.0  0.64049  0.20061  0.34962  1.0000
  N   N119      1.0  0.67088  0.19407  0.36328  1.0000
  C   C172      1.0  0.82474  0.83500  0.35072  1.0000
  N   N120      1.0  0.84600  0.85349  0.33850  1.0000
  C   C173      1.0  0.87730  0.84848  0.32253  1.0000
  N   N121      1.0  0.88678  0.82452  0.31928  1.0000
  C   C174      1.0  0.86648  0.80564  0.33210  1.0000
  N   N122      1.0  0.83611  0.81178  0.34743  1.0000
  C   C175      1.0  0.81445  0.17436  0.37232  1.0000
  N   N123      1.0  0.83567  0.15584  0.35795  1.0000
  C   C176      1.0  0.86705  0.16056  0.34203  1.0000
  N   N124      1.0  0.87618  0.18452  0.33699  1.0000
  C   C177      1.0  0.85601  0.20349  0.34909  1.0000
  N   N125      1.0  0.82566  0.19759  0.36703  1.0000
  C   C178      1.0  0.69154  0.83086  0.37696  1.0000
  N   N126      1.0  0.67063  0.84993  0.37005  1.0000
  C   C179      1.0  0.63854  0.84597  0.36897  1.0000
  N   N127      1.0  0.62805  0.82230  0.37177  1.0000
  C   C180      1.0  0.64788  0.80297  0.37880  1.0000
  N   N128      1.0  0.67899  0.80809  0.38105  1.0000
  C   C181      1.0  0.93659  0.67480  0.33921  1.0000
  N   N129      1.0  0.91488  0.65635  0.33526  1.0000
  C   C182      1.0  0.88317  0.66141  0.33183  1.0000
  N   N130      1.0  0.87403  0.68540  0.33167  1.0000
  C   C183      1.0  0.89464  0.70436  0.33469  1.0000
  N   N131      1.0  0.92551  0.69818  0.33868  1.0000
  C   C184      1.0  0.57068  0.33182  0.34761  1.0000
  N   N132      1.0  0.59288  0.34995  0.34080  1.0000
  C   C185      1.0  0.62460  0.34459  0.33683  1.0000
  N   N133      1.0  0.63327  0.32056  0.33912  1.0000
  C   C186      1.0  0.61233  0.30188  0.34569  1.0000
  N   N134      1.0  0.58150  0.30835  0.34986  1.0000
  C   C187      1.0  0.57015  0.67599  0.34843  1.0000
  N   N135      1.0  0.59114  0.65687  0.34691  1.0000
  C   C188      1.0  0.62326  0.66091  0.34719  1.0000
  N   N136      1.0  0.63365  0.68468  0.34725  1.0000
  C   C189      1.0  0.61372  0.70403  0.34396  1.0000
  N   N137      1.0  0.58274  0.69870  0.34592  1.0000
  C   C190      1.0  0.93659  0.33083  0.34166  1.0000
  N   N138      1.0  0.91498  0.34960  0.33760  1.0000
  C   C191      1.0  0.88295  0.34519  0.33011  1.0000
  N   N139      1.0  0.87352  0.32130  0.32444  1.0000
  C   C192      1.0  0.89394  0.30223  0.32351  1.0000
  N   N140      1.0  0.92467  0.30794  0.33350  1.0000
  C   C193      1.0  0.52407  0.09364  0.31961  1.0000
  N   N141      1.0  0.52508  0.06879  0.32590  1.0000
  C   C194      1.0  0.49813  0.05484  0.33083  1.0000
  N   N142      1.0  0.96933  0.06657  0.33119  1.0000
  C   C195      1.0  0.96695  0.09141  0.32583  1.0000
  N   N143      1.0  0.49482  0.10357  0.32002  1.0000
  C   C196      1.0  0.98035  0.91345  0.31589  1.0000
  N   N144      1.0  0.98102  0.93828  0.32185  1.0000
  C   C197      1.0  0.00876  0.95098  0.33422  1.0000
  N   N145      1.0  0.53623  0.93775  0.34507  1.0000
  C   C198      1.0  0.53646  0.91279  0.34600  1.0000
  N   N146      1.0  0.00826  0.90210  0.32960  1.0000
  C   C199      1.0  0.78365  0.59244  0.33959  1.0000
  N   N147      1.0  0.78195  0.56765  0.34005  1.0000
  C   C200      1.0  0.75354  0.55556  0.34125  1.0000
  N   N148      1.0  0.72604  0.56912  0.34258  1.0000
  C   C201      1.0  0.72641  0.59414  0.34470  1.0000
  N   N149      1.0  0.75555  0.60427  0.34227  1.0000
  C   C202      1.0  0.72481  0.41338  0.33145  1.0000
  N   N150      1.0  0.72496  0.43824  0.33159  1.0000
  C   C203      1.0  0.75234  0.45162  0.33040  1.0000
  N   N151      1.0  0.78059  0.43914  0.33106  1.0000
  C   C204      1.0  0.78202  0.41418  0.33056  1.0000
  N   N152      1.0  0.75365  0.40245  0.33032  1.0000
  C   C205      1.0  0.78135  0.17158  0.38416  1.0000
  C   C206      1.0  0.71467  0.16802  0.37422  1.0000
  N   N153      1.0  0.72992  0.18827  0.40360  1.0000
  C   C207      1.0  0.76134  0.19111  0.41187  1.0000
  C   C208      1.0  0.76915  0.21167  0.44980  1.0000
  N   N154      1.0  0.77448  0.22974  0.48601  1.0000
  C   C209      1.0  0.72503  0.83263  0.37665  1.0000
  C   C210      1.0  0.79170  0.83699  0.36297  1.0000
  N   N155      1.0  0.77658  0.81549  0.37622  1.0000
  C   C211      1.0  0.74536  0.81193  0.38452  1.0000
  C   C212      1.0  0.73864  0.78888  0.39523  1.0000
  N   N156      1.0  0.73418  0.76830  0.40378  1.0000
  C   C213      1.0  0.53662  0.67483  0.35145  1.0000
  C   C214      1.0  0.96976  0.67218  0.34425  1.0000
  N   N157      1.0  0.98572  0.69320  0.35914  1.0000
  C   C215      1.0  0.51718  0.69590  0.36434  1.0000
  C   C216      1.0  0.52513  0.71814  0.38621  1.0000
  N   N158      1.0  0.53142  0.73779  0.40679  1.0000
  C   C217      1.0  0.97007  0.33233  0.35143  1.0000
  C   C218      1.0  0.53738  0.33468  0.35111  1.0000
  N   N159      1.0  0.52094  0.31402  0.36920  1.0000
  C   C219      1.0  0.98931  0.31158  0.37183  1.0000
  C   C220      1.0  0.98059  0.28996  0.39903  1.0000
  N   N160      1.0  0.97352  0.27090  0.42445  1.0000
  N   N161      1.0  0.58050  0.10065  0.32867  1.0000
  C   C221      1.0  0.60727  0.11471  0.33224  1.0000
  H   H29       1.0  0.62871  0.10659  0.34340  1.0000
  N   N162      1.0  0.92392  0.90648  0.32593  1.0000
  C   C222      1.0  0.89753  0.89198  0.32836  1.0000
  H   H30       1.0  0.87645  0.89928  0.34875  1.0000
  C   C223      1.0  0.93924  0.10619  0.32763  1.0000
  C   C224      1.0  0.89046  0.14212  0.33402  1.0000
  N   N163      1.0  0.88431  0.11764  0.34160  1.0000
  C   C225      1.0  0.90687  0.09959  0.33806  1.0000
  C   C226      1.0  0.89751  0.07711  0.34689  1.0000
  N   N164      1.0  0.88926  0.05721  0.35459  1.0000
  C   C227      1.0  0.56266  0.89685  0.35898  1.0000
  C   C228      1.0  0.61523  0.86451  0.36574  1.0000
  N   N165      1.0  0.58502  0.85714  0.38023  1.0000
  C   C229      1.0  0.55910  0.87147  0.37882  1.0000
  C   C230      1.0  0.53373  0.86035  0.40737  1.0000
  N   N166      1.0  0.51185  0.85033  0.43477  1.0000
  N   N167      1.0  0.80544  0.63162  0.33110  1.0000
  C   C231      1.0  0.82730  0.64943  0.32795  1.0000
  H   H31       1.0  0.81953  0.66706  0.32422  1.0000
  N   N168      1.0  0.70327  0.37378  0.32443  1.0000
  C   C232      1.0  0.68101  0.35608  0.32430  1.0000
  H   H32       1.0  0.68836  0.33840  0.31754  1.0000
  C   C233      1.0  0.70015  0.61050  0.34786  1.0000
  C   C234      1.0  0.64676  0.64244  0.34783  1.0000
  N   N169      1.0  0.67701  0.65035  0.35495  1.0000
  C   C235      1.0  0.70328  0.63644  0.35586  1.0000
  C   C236      1.0  0.72859  0.64956  0.36880  1.0000
  N   N170      1.0  0.74980  0.66222  0.38192  1.0000
  C   C237      1.0  0.80965  0.39922  0.33042  1.0000
  C   C238      1.0  0.85899  0.36346  0.32968  1.0000
  N   N171      1.0  0.86502  0.38801  0.33333  1.0000
  C   C239      1.0  0.84223  0.40593  0.33340  1.0000
  C   C240      1.0  0.85176  0.42848  0.33702  1.0000
  N   N172      1.0  0.86019  0.44842  0.34015  1.0000
  C   C241      1.0  0.62094  0.27667  0.34766  1.0000
  C   C242      1.0  0.63261  0.22583  0.34913  1.0000
  N   N173      1.0  0.65610  0.24263  0.35999  1.0000
  C   C243      1.0  0.65202  0.26724  0.35969  1.0000
  C   C244      1.0  0.67738  0.28019  0.37344  1.0000
  N   N174      1.0  0.70011  0.29119  0.38634  1.0000
  C   C245      1.0  0.88599  0.72956  0.33397  1.0000
  C   C246      1.0  0.87439  0.78043  0.33128  1.0000
  N   N175      1.0  0.85096  0.76366  0.34441  1.0000
  C   C247      1.0  0.85497  0.73905  0.34601  1.0000
  C   C248      1.0  0.82969  0.72620  0.36209  1.0000
  N   N176      1.0  0.80702  0.71533  0.37710  1.0000
  N   N177      1.0  0.85657  0.27133  0.35994  1.0000
  C   C249      1.0  0.84608  0.24805  0.36958  1.0000
  H   H33       1.0  0.82466  0.24530  0.39940  1.0000
  N   N178      1.0  0.64661  0.73561  0.40206  1.0000
  C   C250      1.0  0.65525  0.75917  0.41676  1.0000
  H   H34       1.0  0.67339  0.76272  0.46015  1.0000
  N   N179      1.0  0.47905  0.98836  0.33485  1.0000
  C   C251      1.0  0.97418  0.01293  0.33462  1.0000
  H   H35       1.0  0.95148  0.01942  0.33390  1.0000
  N   N180      1.0  0.77751  0.49018  0.35812  1.0000
  C   C252      1.0  0.77973  0.51495  0.36302  1.0000
  H   H36       1.0  0.80040  0.52256  0.38525  1.0000
