data_image0
_chemical_formula_structural       C7H2O2HNHC3H2O2HNHC3H2O2HNHC5H3C2O3C5H3C2O3C3NC2NOHCNHC3NC2NOHCNHC3NC2NOHCNHC7H2O2HNHC3H2O2HNHC3H2O2HNHC5H3C2O3C5H3C2O3C3NC2NOHCNHC3NC2NOHCNHC3NC2NOHCNHC7H2O2HNHC3H2O2HNHC3H2O2HNHC5H3C2O3C5H3C2O3C3NC2NOHCNHC3NC2NOHCNHC3NC2NOHCNHC7H2O2HNHC3H2O2HNHC3H2O2HNHC5H3C2O3C5H3C2O3C3NC2NOHCNHC3NC2NOHCNHC3NC2NOHCNH
_chemical_formula_sum              "C180 H96 O60 N48"
_cell_length_a       43.9447
_cell_length_b       43.9446
_cell_length_c       15.0355
_cell_angle_alpha    90
_cell_angle_beta     90
_cell_angle_gamma    120

_space_group_name_H-M_alt    "P 1"
_space_group_IT_number       1

loop_
  _space_group_symop_operation_xyz
  'x, y, z'

loop_
  _atom_site_type_symbol
  _atom_site_label
  _atom_site_symmetry_multiplicity
  _atom_site_fract_x
  _atom_site_fract_y
  _atom_site_fract_z
  _atom_site_occupancy
  C   C1        1.0  0.19627  0.32999  0.32285  1.0000
  C   C2        1.0  0.22731  0.32772  0.32582  1.0000
  C   C3        1.0  0.31383  0.18539  0.31663  1.0000
  C   C4        1.0  0.29611  0.20474  0.32640  1.0000
  C   C5        1.0  0.29601  0.25943  0.33912  1.0000
  C   C6        1.0  0.29724  0.28438  0.27776  1.0000
  C   C7        1.0  0.27611  0.29970  0.28921  1.0000
  H   H1        1.0  0.27457  0.31390  0.23740  1.0000
  H   H2        1.0  0.31042  0.28853  0.21882  1.0000
  O   O1        1.0  0.21894  0.26850  0.01216  1.0000
  O   O2        1.0  0.20098  0.21511  0.02284  1.0000
  H   H3        1.0  0.19830  0.19450  0.00700  1.0000
  N   N1        1.0  0.31163  0.24034  0.31631  1.0000
  H   H4        1.0  0.33095  0.25095  0.27382  1.0000
  C   C8        1.0  0.23765  0.03599  0.33938  1.0000
  C   C9        1.0  0.21262  0.01230  0.27811  1.0000
  C   C10       1.0  0.19742  0.47584  0.28938  1.0000
  H   H5        1.0  0.18310  0.46010  0.23770  1.0000
  H   H6        1.0  0.20850  0.02133  0.21914  1.0000
  O   O3        1.0  0.22859  0.44972  0.01262  1.0000
  O   O4        1.0  0.28185  0.48544  0.02380  1.0000
  H   H7        1.0  0.30247  0.00338  0.00802  1.0000
  N   N2        1.0  0.25675  0.07068  0.31655  1.0000
  H   H8        1.0  0.24624  0.07948  0.27397  1.0000
  C   C11       1.0  0.46104  0.20106  0.33905  1.0000
  C   C12       1.0  0.48477  0.19983  0.27769  1.0000
  C   C13       1.0  0.02122  0.22101  0.28915  1.0000
  H   H9        1.0  0.03695  0.22252  0.23732  1.0000
  H   H10       1.0  0.47572  0.18668  0.21873  1.0000
  O   O5        1.0  0.04715  0.27802  0.01221  1.0000
  O   O6        1.0  0.01169  0.29595  0.02307  1.0000
  H   H11       1.0  0.49376  0.29864  0.00726  1.0000
  N   N3        1.0  0.42633  0.18537  0.31630  1.0000
  H   H12       1.0  0.41762  0.16612  0.27362  1.0000
  C   C14       1.0  0.16706  0.36571  0.32294  1.0000
  C   C15       1.0  0.13420  0.33433  0.32140  1.0000
  C   C16       1.0  0.13134  0.30078  0.32290  1.0000
  C   C17       1.0  0.16271  0.29930  0.32134  1.0000
  C   C18       1.0  0.19775  0.36285  0.32134  1.0000
  H   H13       1.0  0.16107  0.27524  0.32015  1.0000
  H   H14       1.0  0.22181  0.38527  0.32023  1.0000
  H   H15       1.0  0.11178  0.33598  0.32027  1.0000
  C   C19       1.0  0.16929  0.39899  0.32600  1.0000
  C   C20       1.0  0.09804  0.26974  0.32587  1.0000
  O   O7        1.0  0.25835  0.35641  0.30367  1.0000
  O   O8        1.0  0.14063  0.40142  0.30393  1.0000
  O   O9        1.0  0.09564  0.23867  0.30379  1.0000
  C   C21       1.0  0.31170  0.12787  0.31679  1.0000
  C   C22       1.0  0.34890  0.14614  0.31629  1.0000
  C   C23       1.0  0.36922  0.18325  0.31654  1.0000
  C   C24       1.0  0.35095  0.20218  0.31620  1.0000
  C   C25       1.0  0.29490  0.14819  0.31640  1.0000
  H   H16       1.0  0.36512  0.22893  0.32075  1.0000
  H   H17       1.0  0.26815  0.13561  0.32111  1.0000
  H   H18       1.0  0.36148  0.13196  0.32099  1.0000
  C   C26       1.0  0.29235  0.09079  0.32663  1.0000
  C   C27       1.0  0.40630  0.20097  0.32624  1.0000
  O   O10       1.0  0.26107  0.18664  0.34398  1.0000
  O   O11       1.0  0.31046  0.07386  0.34410  1.0000
  O   O12       1.0  0.42326  0.23602  0.34366  1.0000
  C   C28       1.0  0.25354  0.29131  0.36354  1.0000
  C   C29       1.0  0.25583  0.26983  0.43073  1.0000
  C   C30       1.0  0.27746  0.25451  0.42045  1.0000
  N   N4        1.0  0.28054  0.23678  0.49182  1.0000
  C   C31       1.0  0.26309  0.23226  0.56987  1.0000
  C   C32       1.0  0.24069  0.24641  0.57923  1.0000
  N   N5        1.0  0.23858  0.26477  0.50928  1.0000
  O   O13       1.0  0.26853  0.21535  0.63805  1.0000
  H   H19       1.0  0.29700  0.22810  0.48951  1.0000
  C   C33       1.0  0.22276  0.24377  0.65750  1.0000
  N   N6        1.0  0.22832  0.30082  0.36827  1.0000
  H   H20       1.0  0.20894  0.28722  0.40909  1.0000
  C   C34       1.0  0.20576  0.46163  0.36374  1.0000
  C   C35       1.0  0.22726  0.48539  0.43092  1.0000
  C   C36       1.0  0.24260  0.02234  0.42065  1.0000
  N   N7        1.0  0.26035  0.04315  0.49202  1.0000
  C   C37       1.0  0.26486  0.03021  0.57006  1.0000
  C   C38       1.0  0.25070  0.49365  0.57938  1.0000
  N   N8        1.0  0.23230  0.47319  0.50947  1.0000
  O   O14       1.0  0.28173  0.05253  0.63829  1.0000
  H   H21       1.0  0.26902  0.06829  0.48973  1.0000
  C   C39       1.0  0.25322  0.47828  0.65761  1.0000
  N   N9        1.0  0.19621  0.42690  0.36847  1.0000
  H   H22       1.0  0.20979  0.42110  0.40930  1.0000
  C   C40       1.0  0.03539  0.24354  0.36354  1.0000
  C   C41       1.0  0.01161  0.24123  0.43072  1.0000
  C   C42       1.0  0.47467  0.21960  0.42040  1.0000
  N   N10       1.0  0.45384  0.21649  0.49176  1.0000
  C   C43       1.0  0.46675  0.23391  0.56985  1.0000
  C   C44       1.0  0.00330  0.25632  0.57925  1.0000
  N   N11       1.0  0.02379  0.25845  0.50931  1.0000
  O   O15       1.0  0.44440  0.22845  0.63802  1.0000
  H   H23       1.0  0.42870  0.20003  0.48941  1.0000
  C   C45       1.0  0.01859  0.27421  0.65758  1.0000
  N   N12       1.0  0.07012  0.26873  0.36834  1.0000
  H   H24       1.0  0.07591  0.28809  0.40922  1.0000
  C   C46       1.0  0.19627  0.82999  0.32285  1.0000
  C   C47       1.0  0.22731  0.82772  0.32582  1.0000
  C   C48       1.0  0.31383  0.68539  0.31663  1.0000
  C   C49       1.0  0.29611  0.70474  0.32640  1.0000
  C   C50       1.0  0.29601  0.75943  0.33912  1.0000
  C   C51       1.0  0.29724  0.78438  0.27776  1.0000
  C   C52       1.0  0.27611  0.79970  0.28921  1.0000
  H   H25       1.0  0.27457  0.81390  0.23740  1.0000
  H   H26       1.0  0.31042  0.78853  0.21882  1.0000
  O   O16       1.0  0.21893  0.76850  0.01216  1.0000
  O   O17       1.0  0.20098  0.71511  0.02284  1.0000
  H   H27       1.0  0.19830  0.69450  0.00700  1.0000
  N   N13       1.0  0.31163  0.74034  0.31631  1.0000
  H   H28       1.0  0.33095  0.75095  0.27382  1.0000
  C   C53       1.0  0.23765  0.53599  0.33938  1.0000
  C   C54       1.0  0.21262  0.51229  0.27811  1.0000
  C   C55       1.0  0.19742  0.97584  0.28938  1.0000
  H   H29       1.0  0.18310  0.96010  0.23770  1.0000
  H   H30       1.0  0.20850  0.52133  0.21914  1.0000
  O   O18       1.0  0.22859  0.94972  0.01262  1.0000
  O   O19       1.0  0.28185  0.98544  0.02380  1.0000
  H   H31       1.0  0.30247  0.50338  0.00802  1.0000
  N   N14       1.0  0.25675  0.57068  0.31655  1.0000
  H   H32       1.0  0.24624  0.57948  0.27397  1.0000
  C   C56       1.0  0.46104  0.70106  0.33905  1.0000
  C   C57       1.0  0.48477  0.69983  0.27769  1.0000
  C   C58       1.0  0.02122  0.72101  0.28915  1.0000
  H   H33       1.0  0.03695  0.72253  0.23732  1.0000
  H   H34       1.0  0.47572  0.68668  0.21873  1.0000
  O   O20       1.0  0.04715  0.77802  0.01221  1.0000
  O   O21       1.0  0.01169  0.79595  0.02307  1.0000
  H   H35       1.0  0.49376  0.79864  0.00726  1.0000
  N   N15       1.0  0.42633  0.68537  0.31630  1.0000
  H   H36       1.0  0.41762  0.66612  0.27362  1.0000
  C   C59       1.0  0.16706  0.86571  0.32294  1.0000
  C   C60       1.0  0.13420  0.83433  0.32140  1.0000
  C   C61       1.0  0.13134  0.80078  0.32290  1.0000
  C   C62       1.0  0.16271  0.79930  0.32134  1.0000
  C   C63       1.0  0.19775  0.86285  0.32134  1.0000
  H   H37       1.0  0.16107  0.77524  0.32015  1.0000
  H   H38       1.0  0.22181  0.88526  0.32023  1.0000
  H   H39       1.0  0.11178  0.83598  0.32027  1.0000
  C   C64       1.0  0.16929  0.89900  0.32600  1.0000
  C   C65       1.0  0.09804  0.76974  0.32587  1.0000
  O   O22       1.0  0.25835  0.85641  0.30367  1.0000
  O   O23       1.0  0.14063  0.90142  0.30393  1.0000
  O   O24       1.0  0.09564  0.73867  0.30379  1.0000
  C   C66       1.0  0.31170  0.62787  0.31679  1.0000
  C   C67       1.0  0.34890  0.64614  0.31629  1.0000
  C   C68       1.0  0.36922  0.68325  0.31654  1.0000
  C   C69       1.0  0.35095  0.70218  0.31620  1.0000
  C   C70       1.0  0.29490  0.64819  0.31640  1.0000
  H   H40       1.0  0.36513  0.72893  0.32075  1.0000
  H   H41       1.0  0.26815  0.63561  0.32111  1.0000
  H   H42       1.0  0.36148  0.63196  0.32099  1.0000
  C   C71       1.0  0.29235  0.59079  0.32663  1.0000
  C   C72       1.0  0.40630  0.70097  0.32624  1.0000
  O   O25       1.0  0.26107  0.68665  0.34398  1.0000
  O   O26       1.0  0.31046  0.57386  0.34410  1.0000
  O   O27       1.0  0.42326  0.73602  0.34366  1.0000
  C   C73       1.0  0.25353  0.79131  0.36354  1.0000
  C   C74       1.0  0.25583  0.76983  0.43073  1.0000
  C   C75       1.0  0.27746  0.75452  0.42045  1.0000
  N   N16       1.0  0.28054  0.73678  0.49182  1.0000
  C   C76       1.0  0.26309  0.73226  0.56987  1.0000
  C   C77       1.0  0.24069  0.74641  0.57923  1.0000
  N   N17       1.0  0.23858  0.76477  0.50928  1.0000
  O   O28       1.0  0.26853  0.71535  0.63805  1.0000
  H   H43       1.0  0.29700  0.72810  0.48951  1.0000
  C   C78       1.0  0.22276  0.74377  0.65750  1.0000
  N   N18       1.0  0.22832  0.80082  0.36827  1.0000
  H   H44       1.0  0.20894  0.78722  0.40909  1.0000
  C   C79       1.0  0.20576  0.96163  0.36374  1.0000
  C   C80       1.0  0.22726  0.98539  0.43092  1.0000
  C   C81       1.0  0.24260  0.52234  0.42065  1.0000
  N   N19       1.0  0.26035  0.54315  0.49202  1.0000
  C   C82       1.0  0.26486  0.53021  0.57006  1.0000
  C   C83       1.0  0.25070  0.99365  0.57938  1.0000
  N   N20       1.0  0.23230  0.97319  0.50947  1.0000
  O   O29       1.0  0.28173  0.55254  0.63829  1.0000
  H   H45       1.0  0.26902  0.56829  0.48973  1.0000
  C   C84       1.0  0.25322  0.97828  0.65761  1.0000
  N   N21       1.0  0.19621  0.92690  0.36847  1.0000
  H   H46       1.0  0.20979  0.92110  0.40930  1.0000
  C   C85       1.0  0.03539  0.74354  0.36354  1.0000
  C   C86       1.0  0.01161  0.74123  0.43072  1.0000
  C   C87       1.0  0.47467  0.71960  0.42040  1.0000
  N   N22       1.0  0.45384  0.71649  0.49176  1.0000
  C   C88       1.0  0.46675  0.73391  0.56985  1.0000
  C   C89       1.0  0.00330  0.75632  0.57925  1.0000
  N   N23       1.0  0.02379  0.75845  0.50931  1.0000
  O   O30       1.0  0.44440  0.72845  0.63802  1.0000
  H   H47       1.0  0.42870  0.70003  0.48941  1.0000
  C   C90       1.0  0.01859  0.77421  0.65758  1.0000
  N   N24       1.0  0.07012  0.76873  0.36834  1.0000
  H   H48       1.0  0.07590  0.78809  0.40922  1.0000
  C   C91       1.0  0.69627  0.32999  0.32285  1.0000
  C   C92       1.0  0.72731  0.32772  0.32582  1.0000
  C   C93       1.0  0.81383  0.18539  0.31663  1.0000
  C   C94       1.0  0.79611  0.20474  0.32640  1.0000
  C   C95       1.0  0.79601  0.25943  0.33912  1.0000
  C   C96       1.0  0.79724  0.28438  0.27776  1.0000
  C   C97       1.0  0.77611  0.29970  0.28921  1.0000
  H   H49       1.0  0.77456  0.31390  0.23740  1.0000
  H   H50       1.0  0.81042  0.28853  0.21882  1.0000
  O   O31       1.0  0.71893  0.26850  0.01216  1.0000
  O   O32       1.0  0.70098  0.21511  0.02284  1.0000
  H   H51       1.0  0.69830  0.19450  0.00700  1.0000
  N   N25       1.0  0.81163  0.24034  0.31631  1.0000
  H   H52       1.0  0.83095  0.25095  0.27382  1.0000
  C   C98       1.0  0.73765  0.03599  0.33938  1.0000
  C   C99       1.0  0.71262  0.01230  0.27811  1.0000
  C   C100      1.0  0.69742  0.47584  0.28938  1.0000
  H   H53       1.0  0.68310  0.46010  0.23770  1.0000
  H   H54       1.0  0.70850  0.02133  0.21914  1.0000
  O   O33       1.0  0.72859  0.44972  0.01262  1.0000
  O   O34       1.0  0.78185  0.48544  0.02380  1.0000
  H   H55       1.0  0.80247  0.00338  0.00802  1.0000
  N   N26       1.0  0.75675  0.07068  0.31655  1.0000
  H   H56       1.0  0.74624  0.07948  0.27397  1.0000
  C   C101      1.0  0.96104  0.20106  0.33905  1.0000
  C   C102      1.0  0.98477  0.19983  0.27769  1.0000
  C   C103      1.0  0.52122  0.22101  0.28915  1.0000
  H   H57       1.0  0.53695  0.22252  0.23732  1.0000
  H   H58       1.0  0.97572  0.18668  0.21873  1.0000
  O   O35       1.0  0.54715  0.27802  0.01221  1.0000
  O   O36       1.0  0.51169  0.29595  0.02307  1.0000
  H   H59       1.0  0.99376  0.29864  0.00726  1.0000
  N   N27       1.0  0.92633  0.18537  0.31630  1.0000
  H   H60       1.0  0.91762  0.16612  0.27362  1.0000
  C   C104      1.0  0.66706  0.36571  0.32294  1.0000
  C   C105      1.0  0.63420  0.33433  0.32140  1.0000
  C   C106      1.0  0.63134  0.30078  0.32290  1.0000
  C   C107      1.0  0.66271  0.29930  0.32134  1.0000
  C   C108      1.0  0.69775  0.36285  0.32134  1.0000
  H   H61       1.0  0.66107  0.27524  0.32015  1.0000
  H   H62       1.0  0.72181  0.38527  0.32023  1.0000
  H   H63       1.0  0.61178  0.33598  0.32027  1.0000
  C   C109      1.0  0.66929  0.39899  0.32600  1.0000
  C   C110      1.0  0.59804  0.26974  0.32587  1.0000
  O   O37       1.0  0.75835  0.35641  0.30367  1.0000
  O   O38       1.0  0.64063  0.40142  0.30393  1.0000
  O   O39       1.0  0.59564  0.23867  0.30379  1.0000
  C   C111      1.0  0.81170  0.12787  0.31679  1.0000
  C   C112      1.0  0.84890  0.14614  0.31629  1.0000
  C   C113      1.0  0.86922  0.18325  0.31654  1.0000
  C   C114      1.0  0.85095  0.20218  0.31620  1.0000
  C   C115      1.0  0.79491  0.14819  0.31640  1.0000
  H   H64       1.0  0.86513  0.22893  0.32075  1.0000
  H   H65       1.0  0.76815  0.13561  0.32111  1.0000
  H   H66       1.0  0.86148  0.13196  0.32099  1.0000
  C   C116      1.0  0.79235  0.09079  0.32663  1.0000
  C   C117      1.0  0.90630  0.20097  0.32624  1.0000
  O   O40       1.0  0.76107  0.18664  0.34398  1.0000
  O   O41       1.0  0.81046  0.07386  0.34410  1.0000
  O   O42       1.0  0.92326  0.23602  0.34366  1.0000
  C   C118      1.0  0.75353  0.29131  0.36354  1.0000
  C   C119      1.0  0.75583  0.26983  0.43073  1.0000
  C   C120      1.0  0.77746  0.25451  0.42045  1.0000
  N   N28       1.0  0.78054  0.23678  0.49182  1.0000
  C   C121      1.0  0.76309  0.23226  0.56987  1.0000
  C   C122      1.0  0.74069  0.24641  0.57923  1.0000
  N   N29       1.0  0.73858  0.26477  0.50928  1.0000
  O   O43       1.0  0.76853  0.21535  0.63805  1.0000
  H   H67       1.0  0.79700  0.22810  0.48951  1.0000
  C   C123      1.0  0.72276  0.24377  0.65750  1.0000
  N   N30       1.0  0.72832  0.30082  0.36827  1.0000
  H   H68       1.0  0.70894  0.28722  0.40909  1.0000
  C   C124      1.0  0.70576  0.46163  0.36374  1.0000
  C   C125      1.0  0.72726  0.48539  0.43092  1.0000
  C   C126      1.0  0.74260  0.02234  0.42065  1.0000
  N   N31       1.0  0.76035  0.04315  0.49202  1.0000
  C   C127      1.0  0.76486  0.03021  0.57006  1.0000
  C   C128      1.0  0.75070  0.49365  0.57938  1.0000
  N   N32       1.0  0.73230  0.47319  0.50947  1.0000
  O   O44       1.0  0.78173  0.05253  0.63829  1.0000
  H   H69       1.0  0.76902  0.06829  0.48973  1.0000
  C   C129      1.0  0.75322  0.47828  0.65761  1.0000
  N   N33       1.0  0.69621  0.42690  0.36847  1.0000
  H   H70       1.0  0.70979  0.42110  0.40930  1.0000
  C   C130      1.0  0.53539  0.24354  0.36354  1.0000
  C   C131      1.0  0.51161  0.24123  0.43072  1.0000
  C   C132      1.0  0.97466  0.21960  0.42040  1.0000
  N   N34       1.0  0.95384  0.21649  0.49176  1.0000
  C   C133      1.0  0.96675  0.23391  0.56985  1.0000
  C   C134      1.0  0.50330  0.25632  0.57925  1.0000
  N   N35       1.0  0.52378  0.25845  0.50931  1.0000
  O   O45       1.0  0.94440  0.22845  0.63802  1.0000
  H   H71       1.0  0.92870  0.20003  0.48941  1.0000
  C   C135      1.0  0.51859  0.27421  0.65758  1.0000
  N   N36       1.0  0.57012  0.26873  0.36834  1.0000
  H   H72       1.0  0.57591  0.28809  0.40922  1.0000
  C   C136      1.0  0.69627  0.82999  0.32285  1.0000
  C   C137      1.0  0.72731  0.82772  0.32582  1.0000
  C   C138      1.0  0.81383  0.68539  0.31663  1.0000
  C   C139      1.0  0.79611  0.70474  0.32640  1.0000
  C   C140      1.0  0.79601  0.75943  0.33912  1.0000
  C   C141      1.0  0.79724  0.78438  0.27776  1.0000
  C   C142      1.0  0.77611  0.79970  0.28921  1.0000
  H   H73       1.0  0.77457  0.81390  0.23740  1.0000
  H   H74       1.0  0.81042  0.78853  0.21882  1.0000
  O   O46       1.0  0.71893  0.76850  0.01216  1.0000
  O   O47       1.0  0.70098  0.71511  0.02284  1.0000
  H   H75       1.0  0.69829  0.69450  0.00700  1.0000
  N   N37       1.0  0.81163  0.74034  0.31631  1.0000
  H   H76       1.0  0.83095  0.75095  0.27382  1.0000
  C   C143      1.0  0.73765  0.53599  0.33938  1.0000
  C   C144      1.0  0.71262  0.51229  0.27811  1.0000
  C   C145      1.0  0.69742  0.97584  0.28938  1.0000
  H   H77       1.0  0.68310  0.96010  0.23770  1.0000
  H   H78       1.0  0.70850  0.52133  0.21914  1.0000
  O   O48       1.0  0.72859  0.94972  0.01262  1.0000
  O   O49       1.0  0.78185  0.98544  0.02380  1.0000
  H   H79       1.0  0.80247  0.50338  0.00802  1.0000
  N   N38       1.0  0.75675  0.57068  0.31655  1.0000
  H   H80       1.0  0.74624  0.57948  0.27397  1.0000
  C   C146      1.0  0.96104  0.70106  0.33905  1.0000
  C   C147      1.0  0.98477  0.69983  0.27769  1.0000
  C   C148      1.0  0.52122  0.72101  0.28915  1.0000
  H   H81       1.0  0.53695  0.72253  0.23732  1.0000
  H   H82       1.0  0.97572  0.68668  0.21873  1.0000
  O   O50       1.0  0.54715  0.77802  0.01221  1.0000
  O   O51       1.0  0.51169  0.79595  0.02307  1.0000
  H   H83       1.0  0.99377  0.79864  0.00726  1.0000
  N   N39       1.0  0.92633  0.68537  0.31630  1.0000
  H   H84       1.0  0.91762  0.66612  0.27362  1.0000
  C   C149      1.0  0.66706  0.86571  0.32294  1.0000
  C   C150      1.0  0.63420  0.83433  0.32140  1.0000
  C   C151      1.0  0.63134  0.80078  0.32290  1.0000
  C   C152      1.0  0.66272  0.79930  0.32134  1.0000
  C   C153      1.0  0.69775  0.86285  0.32134  1.0000
  H   H85       1.0  0.66107  0.77524  0.32015  1.0000
  H   H86       1.0  0.72181  0.88526  0.32023  1.0000
  H   H87       1.0  0.61178  0.83598  0.32027  1.0000
  C   C154      1.0  0.66929  0.89900  0.32600  1.0000
  C   C155      1.0  0.59804  0.76974  0.32587  1.0000
  O   O52       1.0  0.75835  0.85641  0.30367  1.0000
  O   O53       1.0  0.64063  0.90142  0.30393  1.0000
  O   O54       1.0  0.59564  0.73867  0.30379  1.0000
  C   C156      1.0  0.81170  0.62787  0.31679  1.0000
  C   C157      1.0  0.84890  0.64614  0.31629  1.0000
  C   C158      1.0  0.86922  0.68325  0.31654  1.0000
  C   C159      1.0  0.85095  0.70218  0.31620  1.0000
  C   C160      1.0  0.79490  0.64819  0.31640  1.0000
  H   H88       1.0  0.86513  0.72893  0.32075  1.0000
  H   H89       1.0  0.76815  0.63561  0.32111  1.0000
  H   H90       1.0  0.86148  0.63196  0.32099  1.0000
  C   C161      1.0  0.79235  0.59079  0.32663  1.0000
  C   C162      1.0  0.90630  0.70097  0.32624  1.0000
  O   O55       1.0  0.76107  0.68665  0.34398  1.0000
  O   O56       1.0  0.81046  0.57386  0.34410  1.0000
  O   O57       1.0  0.92326  0.73602  0.34366  1.0000
  C   C163      1.0  0.75353  0.79131  0.36354  1.0000
  C   C164      1.0  0.75583  0.76983  0.43073  1.0000
  C   C165      1.0  0.77746  0.75452  0.42045  1.0000
  N   N40       1.0  0.78054  0.73678  0.49182  1.0000
  C   C166      1.0  0.76309  0.73226  0.56987  1.0000
  C   C167      1.0  0.74069  0.74641  0.57923  1.0000
  N   N41       1.0  0.73858  0.76477  0.50928  1.0000
  O   O58       1.0  0.76853  0.71535  0.63805  1.0000
  H   H91       1.0  0.79700  0.72810  0.48951  1.0000
  C   C168      1.0  0.72276  0.74377  0.65750  1.0000
  N   N42       1.0  0.72832  0.80082  0.36827  1.0000
  H   H92       1.0  0.70894  0.78722  0.40909  1.0000
  C   C169      1.0  0.70576  0.96163  0.36374  1.0000
  C   C170      1.0  0.72726  0.98539  0.43092  1.0000
  C   C171      1.0  0.74260  0.52234  0.42065  1.0000
  N   N43       1.0  0.76035  0.54315  0.49202  1.0000
  C   C172      1.0  0.76486  0.53021  0.57006  1.0000
  C   C173      1.0  0.75070  0.99365  0.57938  1.0000
  N   N44       1.0  0.73230  0.97319  0.50947  1.0000
  O   O59       1.0  0.78173  0.55254  0.63829  1.0000
  H   H93       1.0  0.76902  0.56829  0.48973  1.0000
  C   C174      1.0  0.75322  0.97828  0.65761  1.0000
  N   N45       1.0  0.69621  0.92690  0.36847  1.0000
  H   H94       1.0  0.70979  0.92110  0.40930  1.0000
  C   C175      1.0  0.53539  0.74354  0.36354  1.0000
  C   C176      1.0  0.51161  0.74123  0.43072  1.0000
  C   C177      1.0  0.97466  0.71960  0.42040  1.0000
  N   N46       1.0  0.95383  0.71649  0.49176  1.0000
  C   C178      1.0  0.96675  0.73391  0.56985  1.0000
  C   C179      1.0  0.50330  0.75632  0.57925  1.0000
  N   N47       1.0  0.52379  0.75845  0.50931  1.0000
  O   O60       1.0  0.94440  0.72845  0.63802  1.0000
  H   H95       1.0  0.92870  0.70003  0.48941  1.0000
  C   C180      1.0  0.51859  0.77421  0.65758  1.0000
  N   N48       1.0  0.57012  0.76873  0.36834  1.0000
  H   H96       1.0  0.57591  0.78809  0.40922  1.0000
