data_image0
_chemical_formula_structural       CHC2NCHCHC2NCHC3H2C3H2C6H2OC2H2OCHOCHC6H3C4NC2NH2C4NC2NH2C3NHC2H2OC2H2OCHOCHC6H3C4NC2NH2C4NC2NH2C3NHC2H2OC2H2OC2H2OC6H3C6H3C4NC2NH2C4NC2NH2C4NC2NH2C2H2OC2H2OC2H2OC6H3C6H3C4NC2NH2C4NC2NH2C4NC2NH2
_chemical_formula_sum              "C144 H72 N24 O12"
_cell_length_a       29.6025
_cell_length_b       29.6025
_cell_length_c       14.804
_cell_angle_alpha    90
_cell_angle_beta     90
_cell_angle_gamma    120

_space_group_name_H-M_alt    "P 1"
_space_group_IT_number       1

loop_
  _space_group_symop_operation_xyz
  'x, y, z'

loop_
  _atom_site_type_symbol
  _atom_site_label
  _atom_site_symmetry_multiplicity
  _atom_site_fract_x
  _atom_site_fract_y
  _atom_site_fract_z
  _atom_site_occupancy
  C   C1        1.0  0.03704  0.27018  0.26583  1.0000
  H   H1        1.0  0.05589  0.27960  0.20493  1.0000
  C   C2        1.0  0.03807  0.27069  0.42975  1.0000
  C   C3        1.0  0.06588  0.28460  0.34705  1.0000
  N   N1        1.0  0.06433  0.28382  0.50961  1.0000
  C   C4        1.0  0.04031  0.27181  0.59092  1.0000
  H   H2        1.0  0.06188  0.28260  0.64884  1.0000
  C   C5        1.0  0.03705  0.77018  0.26583  1.0000
  H   H3        1.0  0.05589  0.77960  0.20493  1.0000
  C   C6        1.0  0.03807  0.77069  0.42975  1.0000
  C   C7        1.0  0.06588  0.78460  0.34705  1.0000
  N   N2        1.0  0.06433  0.78382  0.50961  1.0000
  C   C8        1.0  0.04031  0.77181  0.59092  1.0000
  H   H4        1.0  0.06188  0.78260  0.64884  1.0000
  C   C9        1.0  0.12106  0.31218  0.34422  1.0000
  C   C10       1.0  0.14916  0.36739  0.34482  1.0000
  C   C11       1.0  0.14916  0.28508  0.34480  1.0000
  H   H5        1.0  0.12918  0.24513  0.34590  1.0000
  H   H6        1.0  0.12919  0.38736  0.34591  1.0000
  C   C12       1.0  0.12106  0.81219  0.34422  1.0000
  C   C13       1.0  0.14916  0.86739  0.34482  1.0000
  C   C14       1.0  0.14916  0.78508  0.34480  1.0000
  H   H7        1.0  0.12919  0.74514  0.34590  1.0000
  H   H8        1.0  0.12919  0.88736  0.34591  1.0000
  C   C15       1.0  0.20437  0.39549  0.34424  1.0000
  C   C16       1.0  0.20436  0.31218  0.34422  1.0000
  C   C17       1.0  0.20437  0.89549  0.34424  1.0000
  C   C18       1.0  0.20436  0.81218  0.34422  1.0000
  C   C19       1.0  0.24637  0.27017  0.26583  1.0000
  C   C20       1.0  0.27384  0.24271  0.26677  1.0000
  H   H9        1.0  0.28354  0.23301  0.20642  1.0000
  H   H10       1.0  0.23695  0.27960  0.20494  1.0000
  O   O1        1.0  0.28462  0.23194  0.00724  1.0000
  C   C21       1.0  0.24637  0.47950  0.26584  1.0000
  C   C22       1.0  0.27383  0.03443  0.26678  1.0000
  H   H11       1.0  0.28353  0.05384  0.20642  1.0000
  H   H12       1.0  0.23694  0.46065  0.20494  1.0000
  O   O2        1.0  0.28461  0.05600  0.00724  1.0000
  C   C23       1.0  0.48211  0.24271  0.26677  1.0000
  H   H13       1.0  0.46270  0.23301  0.20642  1.0000
  O   O3        1.0  0.46055  0.23193  0.00724  1.0000
  C   C24       1.0  0.23147  0.36739  0.34482  1.0000
  H   H14       1.0  0.27141  0.38736  0.34591  1.0000
  C   C25       1.0  0.39881  0.20106  0.34564  1.0000
  C   C26       1.0  0.37070  0.14585  0.34618  1.0000
  C   C27       1.0  0.31549  0.11774  0.34564  1.0000
  C   C28       1.0  0.28839  0.14585  0.34616  1.0000
  C   C29       1.0  0.31549  0.20106  0.34564  1.0000
  C   C30       1.0  0.37070  0.22816  0.34616  1.0000
  H   H15       1.0  0.24845  0.12588  0.34748  1.0000
  H   H16       1.0  0.39067  0.26810  0.34748  1.0000
  H   H17       1.0  0.39067  0.12588  0.34749  1.0000
  C   C31       1.0  0.28790  0.22865  0.34890  1.0000
  C   C32       1.0  0.27375  0.24280  0.43169  1.0000
  C   C33       1.0  0.24586  0.27069  0.42975  1.0000
  C   C34       1.0  0.23195  0.28459  0.34705  1.0000
  N   N3        1.0  0.23272  0.28381  0.50961  1.0000
  C   C35       1.0  0.24473  0.27181  0.59092  1.0000
  C   C36       1.0  0.27208  0.24447  0.59353  1.0000
  N   N4        1.0  0.28568  0.23087  0.51466  1.0000
  H   H18       1.0  0.23395  0.28259  0.64884  1.0000
  H   H19       1.0  0.30462  0.21194  0.51905  1.0000
  C   C37       1.0  0.28790  0.06256  0.34890  1.0000
  C   C38       1.0  0.27375  0.03426  0.43169  1.0000
  C   C39       1.0  0.24586  0.47848  0.42976  1.0000
  C   C40       1.0  0.23195  0.45066  0.34706  1.0000
  N   N5        1.0  0.23274  0.45222  0.50962  1.0000
  C   C41       1.0  0.24474  0.47624  0.59093  1.0000
  C   C42       1.0  0.27208  0.03093  0.59353  1.0000
  N   N6        1.0  0.28568  0.05812  0.51466  1.0000
  H   H20       1.0  0.23396  0.45467  0.64884  1.0000
  H   H21       1.0  0.30460  0.09598  0.51905  1.0000
  C   C43       1.0  0.45398  0.22865  0.34890  1.0000
  C   C44       1.0  0.48229  0.24280  0.43169  1.0000
  C   C45       1.0  0.48562  0.24447  0.59353  1.0000
  N   N7        1.0  0.45843  0.23087  0.51466  1.0000
  H   H22       1.0  0.42057  0.21194  0.51905  1.0000
  C   C46       1.0  0.24637  0.77018  0.26583  1.0000
  C   C47       1.0  0.27384  0.74271  0.26677  1.0000
  H   H23       1.0  0.28354  0.73301  0.20642  1.0000
  H   H24       1.0  0.23695  0.77960  0.20494  1.0000
  O   O4        1.0  0.28462  0.73194  0.00724  1.0000
  C   C48       1.0  0.24637  0.97950  0.26584  1.0000
  C   C49       1.0  0.27383  0.53443  0.26678  1.0000
  H   H25       1.0  0.28353  0.55384  0.20642  1.0000
  H   H26       1.0  0.23694  0.96065  0.20494  1.0000
  O   O5        1.0  0.28461  0.55600  0.00724  1.0000
  C   C50       1.0  0.48212  0.74271  0.26677  1.0000
  H   H27       1.0  0.46271  0.73301  0.20642  1.0000
  O   O6        1.0  0.46056  0.73193  0.00724  1.0000
  C   C51       1.0  0.23147  0.86739  0.34482  1.0000
  H   H28       1.0  0.27141  0.88736  0.34591  1.0000
  C   C52       1.0  0.39881  0.70106  0.34564  1.0000
  C   C53       1.0  0.37070  0.64585  0.34618  1.0000
  C   C54       1.0  0.31549  0.61774  0.34564  1.0000
  C   C55       1.0  0.28839  0.64585  0.34616  1.0000
  C   C56       1.0  0.31549  0.70106  0.34564  1.0000
  C   C57       1.0  0.37070  0.72816  0.34616  1.0000
  H   H29       1.0  0.24845  0.62588  0.34748  1.0000
  H   H30       1.0  0.39067  0.76810  0.34748  1.0000
  H   H31       1.0  0.39067  0.62588  0.34749  1.0000
  C   C58       1.0  0.28791  0.72865  0.34890  1.0000
  C   C59       1.0  0.27375  0.74280  0.43169  1.0000
  C   C60       1.0  0.24586  0.77069  0.42975  1.0000
  C   C61       1.0  0.23195  0.78459  0.34705  1.0000
  N   N8        1.0  0.23273  0.78382  0.50961  1.0000
  C   C62       1.0  0.24474  0.77181  0.59092  1.0000
  C   C63       1.0  0.27208  0.74447  0.59353  1.0000
  N   N9        1.0  0.28568  0.73088  0.51466  1.0000
  H   H32       1.0  0.23395  0.78259  0.64884  1.0000
  H   H33       1.0  0.30462  0.71195  0.51905  1.0000
  C   C64       1.0  0.28790  0.56256  0.34890  1.0000
  C   C65       1.0  0.27375  0.53426  0.43169  1.0000
  C   C66       1.0  0.24586  0.97848  0.42976  1.0000
  C   C67       1.0  0.23195  0.95066  0.34706  1.0000
  N   N10       1.0  0.23274  0.95222  0.50962  1.0000
  C   C68       1.0  0.24475  0.97624  0.59093  1.0000
  C   C69       1.0  0.27208  0.53093  0.59353  1.0000
  N   N11       1.0  0.28568  0.55812  0.51466  1.0000
  H   H34       1.0  0.23396  0.95467  0.64884  1.0000
  H   H35       1.0  0.30460  0.59598  0.51905  1.0000
  C   C70       1.0  0.45398  0.72864  0.34890  1.0000
  C   C71       1.0  0.48229  0.74280  0.43169  1.0000
  C   C72       1.0  0.48562  0.74447  0.59353  1.0000
  N   N12       1.0  0.45843  0.73087  0.51466  1.0000
  H   H36       1.0  0.42057  0.71194  0.51905  1.0000
  C   C73       1.0  0.74637  0.27017  0.26583  1.0000
  C   C74       1.0  0.77384  0.24271  0.26677  1.0000
  H   H37       1.0  0.78354  0.23301  0.20642  1.0000
  H   H38       1.0  0.73694  0.27960  0.20494  1.0000
  O   O7        1.0  0.78462  0.23194  0.00724  1.0000
  C   C75       1.0  0.74637  0.47950  0.26584  1.0000
  C   C76       1.0  0.77383  0.03443  0.26678  1.0000
  H   H39       1.0  0.78353  0.05384  0.20642  1.0000
  H   H40       1.0  0.73694  0.46065  0.20494  1.0000
  O   O8        1.0  0.78461  0.05600  0.00724  1.0000
  C   C77       1.0  0.53704  0.27018  0.26583  1.0000
  C   C78       1.0  0.98211  0.24271  0.26677  1.0000
  H   H41       1.0  0.96271  0.23301  0.20642  1.0000
  H   H42       1.0  0.55589  0.27960  0.20493  1.0000
  O   O9        1.0  0.96056  0.23193  0.00724  1.0000
  C   C79       1.0  0.62106  0.31218  0.34422  1.0000
  C   C80       1.0  0.64916  0.36739  0.34482  1.0000
  C   C81       1.0  0.70437  0.39549  0.34424  1.0000
  C   C82       1.0  0.73147  0.36739  0.34482  1.0000
  C   C83       1.0  0.70437  0.31218  0.34422  1.0000
  C   C84       1.0  0.64916  0.28508  0.34480  1.0000
  H   H43       1.0  0.77141  0.38736  0.34591  1.0000
  H   H44       1.0  0.62918  0.24513  0.34590  1.0000
  H   H45       1.0  0.62919  0.38736  0.34591  1.0000
  C   C85       1.0  0.89881  0.20106  0.34564  1.0000
  C   C86       1.0  0.87069  0.14585  0.34618  1.0000
  C   C87       1.0  0.81549  0.11774  0.34564  1.0000
  C   C88       1.0  0.78839  0.14585  0.34616  1.0000
  C   C89       1.0  0.81549  0.20106  0.34564  1.0000
  C   C90       1.0  0.87070  0.22816  0.34616  1.0000
  H   H46       1.0  0.74845  0.12588  0.34748  1.0000
  H   H47       1.0  0.89067  0.26810  0.34748  1.0000
  H   H48       1.0  0.89067  0.12588  0.34749  1.0000
  C   C91       1.0  0.78790  0.22865  0.34890  1.0000
  C   C92       1.0  0.77375  0.24280  0.43169  1.0000
  C   C93       1.0  0.74586  0.27069  0.42975  1.0000
  C   C94       1.0  0.73195  0.28459  0.34705  1.0000
  N   N13       1.0  0.73273  0.28381  0.50961  1.0000
  C   C95       1.0  0.74473  0.27181  0.59092  1.0000
  C   C96       1.0  0.77209  0.24447  0.59353  1.0000
  N   N14       1.0  0.78568  0.23087  0.51466  1.0000
  H   H49       1.0  0.73395  0.28259  0.64884  1.0000
  H   H50       1.0  0.80462  0.21194  0.51905  1.0000
  C   C97       1.0  0.78790  0.06256  0.34890  1.0000
  C   C98       1.0  0.77375  0.03426  0.43169  1.0000
  C   C99       1.0  0.74586  0.47848  0.42976  1.0000
  C   C100      1.0  0.73195  0.45066  0.34706  1.0000
  N   N15       1.0  0.73274  0.45222  0.50962  1.0000
  C   C101      1.0  0.74475  0.47624  0.59093  1.0000
  C   C102      1.0  0.77208  0.03093  0.59353  1.0000
  N   N16       1.0  0.78567  0.05812  0.51466  1.0000
  H   H51       1.0  0.73396  0.45467  0.64884  1.0000
  H   H52       1.0  0.80460  0.09598  0.51905  1.0000
  C   C103      1.0  0.95398  0.22865  0.34890  1.0000
  C   C104      1.0  0.98229  0.24280  0.43169  1.0000
  C   C105      1.0  0.53807  0.27069  0.42975  1.0000
  C   C106      1.0  0.56588  0.28460  0.34705  1.0000
  N   N17       1.0  0.56433  0.28382  0.50961  1.0000
  C   C107      1.0  0.54031  0.27181  0.59092  1.0000
  C   C108      1.0  0.98563  0.24447  0.59353  1.0000
  N   N18       1.0  0.95843  0.23087  0.51466  1.0000
  H   H53       1.0  0.56188  0.28260  0.64884  1.0000
  H   H54       1.0  0.92057  0.21194  0.51905  1.0000
  C   C109      1.0  0.74637  0.77018  0.26583  1.0000
  C   C110      1.0  0.77384  0.74271  0.26677  1.0000
  H   H55       1.0  0.78354  0.73301  0.20642  1.0000
  H   H56       1.0  0.73695  0.77960  0.20494  1.0000
  O   O10       1.0  0.78462  0.73194  0.00724  1.0000
  C   C111      1.0  0.74637  0.97950  0.26584  1.0000
  C   C112      1.0  0.77383  0.53443  0.26678  1.0000
  H   H57       1.0  0.78353  0.55384  0.20642  1.0000
  H   H58       1.0  0.73694  0.96065  0.20494  1.0000
  O   O11       1.0  0.78461  0.55600  0.00724  1.0000
  C   C113      1.0  0.53704  0.77018  0.26583  1.0000
  C   C114      1.0  0.98212  0.74271  0.26677  1.0000
  H   H59       1.0  0.96270  0.73301  0.20642  1.0000
  H   H60       1.0  0.55589  0.77960  0.20493  1.0000
  O   O12       1.0  0.96056  0.73193  0.00724  1.0000
  C   C115      1.0  0.62106  0.81219  0.34422  1.0000
  C   C116      1.0  0.64916  0.86739  0.34482  1.0000
  C   C117      1.0  0.70437  0.89549  0.34424  1.0000
  C   C118      1.0  0.73147  0.86739  0.34482  1.0000
  C   C119      1.0  0.70437  0.81218  0.34422  1.0000
  C   C120      1.0  0.64916  0.78508  0.34480  1.0000
  H   H61       1.0  0.77141  0.88736  0.34591  1.0000
  H   H62       1.0  0.62919  0.74514  0.34590  1.0000
  H   H63       1.0  0.62919  0.88736  0.34591  1.0000
  C   C121      1.0  0.89881  0.70106  0.34564  1.0000
  C   C122      1.0  0.87070  0.64585  0.34618  1.0000
  C   C123      1.0  0.81549  0.61774  0.34564  1.0000
  C   C124      1.0  0.78839  0.64585  0.34616  1.0000
  C   C125      1.0  0.81549  0.70106  0.34564  1.0000
  C   C126      1.0  0.87070  0.72816  0.34616  1.0000
  H   H64       1.0  0.74845  0.62588  0.34748  1.0000
  H   H65       1.0  0.89067  0.76810  0.34748  1.0000
  H   H66       1.0  0.89067  0.62588  0.34749  1.0000
  C   C127      1.0  0.78791  0.72865  0.34890  1.0000
  C   C128      1.0  0.77375  0.74280  0.43169  1.0000
  C   C129      1.0  0.74586  0.77069  0.42975  1.0000
  C   C130      1.0  0.73195  0.78459  0.34705  1.0000
  N   N19       1.0  0.73273  0.78382  0.50961  1.0000
  C   C131      1.0  0.74474  0.77181  0.59092  1.0000
  C   C132      1.0  0.77208  0.74447  0.59353  1.0000
  N   N20       1.0  0.78568  0.73088  0.51466  1.0000
  H   H67       1.0  0.73395  0.78259  0.64884  1.0000
  H   H68       1.0  0.80462  0.71195  0.51905  1.0000
  C   C133      1.0  0.78790  0.56256  0.34890  1.0000
  C   C134      1.0  0.77375  0.53426  0.43169  1.0000
  C   C135      1.0  0.74586  0.97848  0.42976  1.0000
  C   C136      1.0  0.73196  0.95066  0.34706  1.0000
  N   N21       1.0  0.73274  0.95222  0.50962  1.0000
  C   C137      1.0  0.74475  0.97624  0.59093  1.0000
  C   C138      1.0  0.77208  0.53093  0.59353  1.0000
  N   N22       1.0  0.78568  0.55812  0.51466  1.0000
  H   H69       1.0  0.73396  0.95467  0.64884  1.0000
  H   H70       1.0  0.80461  0.59598  0.51905  1.0000
  C   C139      1.0  0.95398  0.72864  0.34890  1.0000
  C   C140      1.0  0.98229  0.74280  0.43169  1.0000
  C   C141      1.0  0.53807  0.77069  0.42975  1.0000
  C   C142      1.0  0.56588  0.78460  0.34705  1.0000
  N   N23       1.0  0.56433  0.78382  0.50961  1.0000
  C   C143      1.0  0.54031  0.77181  0.59092  1.0000
  C   C144      1.0  0.98562  0.74447  0.59353  1.0000
  N   N24       1.0  0.95843  0.73087  0.51466  1.0000
  H   H71       1.0  0.56188  0.78260  0.64884  1.0000
  H   H72       1.0  0.92057  0.71194  0.51905  1.0000
