data_image0
_chemical_formula_structural       C5H3CH3C5H3CH3C3H3CH3C3H3CH3C3H3CH3C3H3CH3C5H3CH3C5H3CH3C5H3CH3C5H3CH3C3H3CH3C3H3CH3C3H3CH3C3H3CH3C5H3CH3C5H3CH3C5H3CH3C5H3CH3CNCNCNCNCNCNCNCNCNCNCNCNCNCNCNCNCNCNCNCNCNCNCNCNCNCNCNCNCNCNCNCNCNCNCNCNC3H3CH3C3H3CH3C5H3CH3C5H3CH3C5H3CH3C5H3CH3C3H3CH3C3H3CH3C3H3CH3C3H3CH3C5H3CH3C5H3CH3C5H3CH3C5H3CH3C3H3CH3C3H3CH3C3H3CH3C3H3CH3
_chemical_formula_sum              "C216 H216 N36"
_cell_length_a       34.1
_cell_length_b       33.9397
_cell_length_c       14.8275
_cell_angle_alpha    90
_cell_angle_beta     90
_cell_angle_gamma    90.2771

_space_group_name_H-M_alt    "P 1"
_space_group_IT_number       1

loop_
  _space_group_symop_operation_xyz
  'x, y, z'

loop_
  _atom_site_type_symbol
  _atom_site_label
  _atom_site_symmetry_multiplicity
  _atom_site_fract_x
  _atom_site_fract_y
  _atom_site_fract_z
  _atom_site_occupancy
  C   C1        1.0  0.97338  0.53416  0.34443  1.0000
  C   C2        1.0  0.98835  0.51928  0.26102  1.0000
  C   C3        1.0  0.01826  0.48964  0.26126  1.0000
  C   C4        1.0  0.03327  0.47495  0.34475  1.0000
  C   C5        1.0  0.03496  0.47290  0.17545  1.0000
  H   H1        1.0  0.02296  0.48468  0.11322  1.0000
  H   H2        1.0  0.02986  0.44114  0.17354  1.0000
  H   H3        1.0  0.06649  0.47845  0.17319  1.0000
  C   C6        1.0  0.97302  0.53444  0.17259  1.0000
  H   H4        1.0  0.95046  0.55689  0.17748  1.0000
  H   H5        1.0  0.96017  0.51018  0.13420  1.0000
  H   H6        1.0  0.99701  0.54758  0.13405  1.0000
  C   C7        1.0  0.47344  0.97252  0.34452  1.0000
  C   C8        1.0  0.48857  0.98733  0.26109  1.0000
  C   C9        1.0  0.51861  0.01712  0.26131  1.0000
  C   C10       1.0  0.53344  0.03210  0.34483  1.0000
  C   C11       1.0  0.53560  0.03371  0.17551  1.0000
  H   H7        1.0  0.52381  0.02161  0.11328  1.0000
  H   H8        1.0  0.56715  0.02847  0.17385  1.0000
  H   H9        1.0  0.53050  0.06541  0.17297  1.0000
  C   C12       1.0  0.47325  0.97200  0.17267  1.0000
  H   H10       1.0  0.45047  0.94956  0.17756  1.0000
  H   H11       1.0  0.49719  0.95881  0.13444  1.0000
  H   H12       1.0  0.46068  0.99620  0.13394  1.0000
  C   C13       1.0  0.06614  0.31547  0.26187  1.0000
  C   C14       1.0  0.05770  0.27402  0.26247  1.0000
  C   C15       1.0  0.07048  0.33651  0.17298  1.0000
  H   H13       1.0  0.07648  0.36796  0.17779  1.0000
  H   H14       1.0  0.04353  0.33359  0.13392  1.0000
  H   H15       1.0  0.09467  0.32383  0.13480  1.0000
  C   C16       1.0  0.05341  0.25261  0.17400  1.0000
  H   H16       1.0  0.04719  0.22123  0.17937  1.0000
  H   H17       1.0  0.08045  0.25524  0.13513  1.0000
  H   H18       1.0  0.02934  0.26523  0.13530  1.0000
  C   C17       1.0  0.94019  0.69335  0.26191  1.0000
  C   C18       1.0  0.94902  0.73471  0.26249  1.0000
  C   C19       1.0  0.93563  0.67235  0.17302  1.0000
  H   H19       1.0  0.92925  0.64097  0.17783  1.0000
  H   H20       1.0  0.96263  0.67495  0.13402  1.0000
  H   H21       1.0  0.91161  0.68531  0.13478  1.0000
  C   C20       1.0  0.95351  0.75608  0.17402  1.0000
  H   H22       1.0  0.96008  0.78739  0.17937  1.0000
  H   H23       1.0  0.92643  0.75376  0.13521  1.0000
  H   H24       1.0  0.97741  0.74318  0.13525  1.0000
  C   C21       1.0  0.69229  0.06616  0.26188  1.0000
  C   C22       1.0  0.73347  0.05767  0.26249  1.0000
  C   C23       1.0  0.67139  0.07048  0.17299  1.0000
  H   H25       1.0  0.64016  0.07660  0.17779  1.0000
  H   H26       1.0  0.67396  0.04335  0.13409  1.0000
  H   H27       1.0  0.68429  0.09471  0.13465  1.0000
  C   C24       1.0  0.75473  0.05332  0.17402  1.0000
  H   H28       1.0  0.78588  0.04698  0.17937  1.0000
  H   H29       1.0  0.75244  0.08050  0.13518  1.0000
  H   H30       1.0  0.74187  0.02919  0.13529  1.0000
  C   C25       1.0  0.31457  0.94022  0.26193  1.0000
  C   C26       1.0  0.27361  0.94971  0.26251  1.0000
  C   C27       1.0  0.33536  0.93532  0.17306  1.0000
  H   H31       1.0  0.36638  0.92829  0.17787  1.0000
  H   H32       1.0  0.33356  0.96254  0.13421  1.0000
  H   H33       1.0  0.32177  0.91148  0.13466  1.0000
  C   C28       1.0  0.25248  0.95460  0.17402  1.0000
  H   H34       1.0  0.22153  0.96185  0.17936  1.0000
  H   H35       1.0  0.25400  0.92733  0.13530  1.0000
  H   H36       1.0  0.26602  0.97833  0.13520  1.0000
  C   C29       1.0  0.45309  0.75186  0.34327  1.0000
  C   C30       1.0  0.44853  0.77253  0.25990  1.0000
  C   C31       1.0  0.43940  0.81375  0.26045  1.0000
  C   C32       1.0  0.43485  0.83409  0.34421  1.0000
  C   C33       1.0  0.43419  0.83703  0.17483  1.0000
  H   H37       1.0  0.43813  0.82072  0.11247  1.0000
  H   H38       1.0  0.45532  0.86128  0.17319  1.0000
  H   H39       1.0  0.40463  0.84919  0.17258  1.0000
  C   C34       1.0  0.45306  0.75146  0.17134  1.0000
  H   H40       1.0  0.45984  0.72024  0.17606  1.0000
  H   H41       1.0  0.47688  0.76494  0.13284  1.0000
  H   H42       1.0  0.42582  0.75350  0.13298  1.0000
  C   C35       1.0  0.55362  0.25322  0.34327  1.0000
  C   C36       1.0  0.55803  0.23255  0.25986  1.0000
  C   C37       1.0  0.56691  0.19128  0.26034  1.0000
  C   C38       1.0  0.57130  0.17088  0.34406  1.0000
  C   C39       1.0  0.57198  0.16800  0.17467  1.0000
  H   H43       1.0  0.56811  0.18435  0.11234  1.0000
  H   H44       1.0  0.55071  0.14389  0.17305  1.0000
  H   H45       1.0  0.60147  0.15567  0.17234  1.0000
  C   C40       1.0  0.55363  0.25367  0.17133  1.0000
  H   H46       1.0  0.54706  0.28494  0.17610  1.0000
  H   H47       1.0  0.52971  0.24037  0.13284  1.0000
  H   H48       1.0  0.58084  0.25146  0.13294  1.0000
  C   C41       1.0  0.75297  0.55408  0.34318  1.0000
  C   C42       1.0  0.77367  0.55837  0.25984  1.0000
  C   C43       1.0  0.81488  0.56712  0.26038  1.0000
  C   C44       1.0  0.83523  0.57150  0.34412  1.0000
  C   C45       1.0  0.83815  0.57212  0.17475  1.0000
  H   H49       1.0  0.82189  0.56812  0.11241  1.0000
  H   H50       1.0  0.86199  0.55078  0.17334  1.0000
  H   H51       1.0  0.85068  0.60176  0.17228  1.0000
  C   C46       1.0  0.75263  0.55402  0.17127  1.0000
  H   H52       1.0  0.72140  0.54760  0.17598  1.0000
  H   H53       1.0  0.76552  0.52990  0.13288  1.0000
  H   H54       1.0  0.75526  0.58132  0.13281  1.0000
  C   C47       1.0  0.25395  0.45181  0.34318  1.0000
  C   C48       1.0  0.23320  0.44802  0.25978  1.0000
  C   C49       1.0  0.19180  0.44031  0.26025  1.0000
  C   C50       1.0  0.17133  0.43649  0.34396  1.0000
  C   C51       1.0  0.16845  0.43593  0.17458  1.0000
  H   H55       1.0  0.18480  0.43965  0.11227  1.0000
  H   H56       1.0  0.14512  0.45782  0.17331  1.0000
  H   H57       1.0  0.15525  0.40660  0.17190  1.0000
  C   C52       1.0  0.25440  0.45175  0.17126  1.0000
  H   H58       1.0  0.28580  0.45722  0.17603  1.0000
  H   H59       1.0  0.24224  0.47625  0.13284  1.0000
  H   H60       1.0  0.25098  0.42454  0.13278  1.0000
  C   C53       1.0  0.10902  0.09973  0.26222  1.0000
  C   C54       1.0  0.13308  0.06526  0.26236  1.0000
  C   C55       1.0  0.09611  0.11709  0.17370  1.0000
  H   H61       1.0  0.07845  0.14361  0.17919  1.0000
  H   H62       1.0  0.07862  0.09560  0.13638  1.0000
  H   H63       1.0  0.12167  0.12528  0.13354  1.0000
  C   C56       1.0  0.14496  0.04712  0.17387  1.0000
  H   H64       1.0  0.16419  0.02174  0.17947  1.0000
  H   H65       1.0  0.16087  0.06866  0.13317  1.0000
  H   H66       1.0  0.11897  0.03737  0.13705  1.0000
  C   C57       1.0  0.89871  0.90926  0.26223  1.0000
  C   C58       1.0  0.87479  0.94380  0.26235  1.0000
  C   C59       1.0  0.91167  0.89192  0.17370  1.0000
  H   H67       1.0  0.92919  0.86531  0.17916  1.0000
  H   H68       1.0  0.92933  0.91337  0.13665  1.0000
  H   H69       1.0  0.88614  0.88391  0.13328  1.0000
  C   C60       1.0  0.86311  0.96208  0.17384  1.0000
  H   H70       1.0  0.84401  0.98756  0.17938  1.0000
  H   H71       1.0  0.84715  0.94065  0.13296  1.0000
  H   H72       1.0  0.88920  0.97172  0.13725  1.0000
  C   C61       1.0  0.90751  0.10999  0.26227  1.0000
  C   C62       1.0  0.94266  0.13323  0.26244  1.0000
  C   C63       1.0  0.88969  0.09758  0.17377  1.0000
  H   H73       1.0  0.86251  0.08081  0.17936  1.0000
  H   H74       1.0  0.91029  0.07924  0.13653  1.0000
  H   H75       1.0  0.88269  0.12349  0.13350  1.0000
  C   C64       1.0  0.96112  0.14471  0.17393  1.0000
  H   H76       1.0  0.98722  0.16311  0.17947  1.0000
  H   H77       1.0  0.94032  0.16149  0.13357  1.0000
  H   H78       1.0  0.96962  0.11835  0.13677  1.0000
  C   C65       1.0  0.09952  0.89905  0.26224  1.0000
  C   C66       1.0  0.06455  0.87554  0.26241  1.0000
  C   C67       1.0  0.11718  0.91168  0.17371  1.0000
  H   H79       1.0  0.14416  0.92877  0.17925  1.0000
  H   H80       1.0  0.09636  0.92978  0.13652  1.0000
  H   H81       1.0  0.12447  0.88585  0.13343  1.0000
  C   C68       1.0  0.04616  0.86394  0.17390  1.0000
  H   H82       1.0  0.02027  0.84523  0.17947  1.0000
  H   H83       1.0  0.06711  0.84743  0.13337  1.0000
  H   H84       1.0  0.03734  0.89023  0.13692  1.0000
  C   C69       1.0  0.36334  0.54496  0.34381  1.0000
  C   C70       1.0  0.37381  0.56307  0.26015  1.0000
  C   C71       1.0  0.39770  0.59788  0.26030  1.0000
  C   C72       1.0  0.41046  0.61432  0.34407  1.0000
  C   C73       1.0  0.41101  0.61760  0.17451  1.0000
  H   H85       1.0  0.39955  0.60501  0.11246  1.0000
  H   H86       1.0  0.44292  0.61638  0.16954  1.0000
  H   H87       1.0  0.40204  0.64843  0.17518  1.0000
  C   C74       1.0  0.36093  0.54542  0.17195  1.0000
  H   H88       1.0  0.34234  0.51939  0.17752  1.0000
  H   H89       1.0  0.38659  0.53686  0.13267  1.0000
  H   H90       1.0  0.34395  0.56699  0.13408  1.0000
  C   C75       1.0  0.64409  0.45988  0.34372  1.0000
  C   C76       1.0  0.63352  0.44179  0.26011  1.0000
  C   C77       1.0  0.60942  0.40712  0.26027  1.0000
  C   C78       1.0  0.59653  0.39075  0.34401  1.0000
  C   C79       1.0  0.59598  0.38748  0.17449  1.0000
  H   H91       1.0  0.60745  0.40005  0.11243  1.0000
  H   H92       1.0  0.56408  0.38883  0.16963  1.0000
  H   H93       1.0  0.60483  0.35661  0.17507  1.0000
  C   C80       1.0  0.64656  0.45932  0.17193  1.0000
  H   H94       1.0  0.66539  0.48518  0.17754  1.0000
  H   H95       1.0  0.62099  0.46811  0.13261  1.0000
  H   H96       1.0  0.66336  0.43761  0.13407  1.0000
  C   C81       1.0  0.54690  0.64334  0.34368  1.0000
  C   C82       1.0  0.56501  0.63303  0.26009  1.0000
  C   C83       1.0  0.59974  0.60946  0.26025  1.0000
  C   C84       1.0  0.61615  0.59680  0.34396  1.0000
  C   C85       1.0  0.61940  0.59632  0.17446  1.0000
  H   H97       1.0  0.60690  0.60776  0.11242  1.0000
  H   H98       1.0  0.61817  0.56425  0.16940  1.0000
  H   H99       1.0  0.65009  0.60562  0.17522  1.0000
  C   C86       1.0  0.54738  0.64567  0.17187  1.0000
  H   H100      1.0  0.52138  0.66399  0.17741  1.0000
  H   H101      1.0  0.53897  0.61976  0.13265  1.0000
  H   H102      1.0  0.56876  0.66304  0.13395  1.0000
  C   C87       1.0  0.45995  0.36168  0.34372  1.0000
  C   C88       1.0  0.44179  0.37188  0.26012  1.0000
  C   C89       1.0  0.40696  0.39530  0.26031  1.0000
  C   C90       1.0  0.39052  0.40789  0.34404  1.0000
  C   C91       1.0  0.38720  0.40831  0.17455  1.0000
  H   H103      1.0  0.39967  0.39683  0.11252  1.0000
  H   H104      1.0  0.38836  0.44037  0.16931  1.0000
  H   H105      1.0  0.35653  0.39895  0.17550  1.0000
  C   C92       1.0  0.45943  0.35925  0.17190  1.0000
  H   H106      1.0  0.48552  0.34108  0.17745  1.0000
  H   H107      1.0  0.46768  0.38517  0.13255  1.0000
  H   H108      1.0  0.43811  0.34175  0.13414  1.0000
  C   C93       1.0  0.13036  0.42663  0.34376  1.0000
  N   N1        1.0  0.10193  0.45481  0.34395  1.0000
  C   C94       1.0  0.06303  0.44503  0.34427  1.0000
  N   N2        1.0  0.05297  0.40606  0.34491  1.0000
  C   C95       1.0  0.08073  0.37726  0.34506  1.0000
  N   N3        1.0  0.11921  0.38808  0.34440  1.0000
  C   C96       1.0  0.87610  0.58184  0.34397  1.0000
  N   N4        1.0  0.90471  0.55386  0.34410  1.0000
  C   C97       1.0  0.94354  0.56387  0.34448  1.0000
  N   N5        1.0  0.95339  0.60290  0.34489  1.0000
  C   C98       1.0  0.92547  0.63154  0.34512  1.0000
  N   N6        1.0  0.88703  0.62048  0.34458  1.0000
  C   C99       1.0  0.58156  0.12993  0.34386  1.0000
  N   N7        1.0  0.55358  0.10107  0.34409  1.0000
  C   C100      1.0  0.56335  0.06212  0.34433  1.0000
  N   N8        1.0  0.60214  0.05240  0.34490  1.0000
  C   C101      1.0  0.63080  0.08059  0.34504  1.0000
  N   N9        1.0  0.61997  0.11916  0.34443  1.0000
  C   C102      1.0  0.42473  0.87509  0.34407  1.0000
  N   N10       1.0  0.45291  0.90375  0.34423  1.0000
  C   C103      1.0  0.44341  0.94275  0.34457  1.0000
  N   N11       1.0  0.40470  0.95277  0.34494  1.0000
  C   C104      1.0  0.37583  0.92480  0.34515  1.0000
  N   N12       1.0  0.38638  0.88613  0.34463  1.0000
  C   C105      1.0  0.99908  0.15976  0.34643  1.0000
  N   N13       1.0  0.00738  0.19908  0.34657  1.0000
  C   C106      1.0  0.04525  0.21227  0.34669  1.0000
  N   N14       1.0  0.07490  0.18538  0.34661  1.0000
  C   C107      1.0  0.06706  0.14596  0.34645  1.0000
  N   N15       1.0  0.02913  0.13373  0.34614  1.0000
  C   C108      1.0  0.00826  0.84878  0.34640  1.0000
  N   N16       1.0  0.99984  0.80948  0.34654  1.0000
  C   C109      1.0  0.96192  0.79640  0.34667  1.0000
  N   N17       1.0  0.93236  0.82339  0.34661  1.0000
  C   C110      1.0  0.94035  0.86278  0.34645  1.0000
  N   N18       1.0  0.97830  0.87490  0.34614  1.0000
  C   C111      1.0  0.84735  0.99971  0.34631  1.0000
  N   N19       1.0  0.80818  0.00759  0.34649  1.0000
  C   C112      1.0  0.79495  0.04551  0.34667  1.0000
  N   N20       1.0  0.82168  0.07561  0.34663  1.0000
  C   C113      1.0  0.86092  0.06815  0.34640  1.0000
  N   N21       1.0  0.87315  0.03021  0.34605  1.0000
  C   C114      1.0  0.16027  0.00917  0.34629  1.0000
  N   N22       1.0  0.19939  0.00095  0.34646  1.0000
  C   C115      1.0  0.21231  0.96291  0.34664  1.0000
  N   N23       1.0  0.18534  0.93305  0.34661  1.0000
  C   C116      1.0  0.14617  0.94082  0.34639  1.0000
  N   N24       1.0  0.13423  0.97886  0.34604  1.0000
  C   C117      1.0  0.50805  0.65859  0.34348  1.0000
  N   N25       1.0  0.49969  0.69784  0.34322  1.0000
  C   C118      1.0  0.46178  0.71064  0.34304  1.0000
  N   N26       1.0  0.43218  0.68342  0.34316  1.0000
  C   C119      1.0  0.44009  0.64410  0.34346  1.0000
  N   N27       1.0  0.47801  0.63227  0.34380  1.0000
  C   C120      1.0  0.49885  0.34654  0.34351  1.0000
  N   N28       1.0  0.50718  0.30729  0.34327  1.0000
  C   C121      1.0  0.54507  0.29447  0.34310  1.0000
  N   N29       1.0  0.57470  0.32166  0.34318  1.0000
  C   C122      1.0  0.56683  0.36100  0.34346  1.0000
  N   N30       1.0  0.52891  0.37285  0.34382  1.0000
  C   C123      1.0  0.65961  0.49893  0.34346  1.0000
  N   N31       1.0  0.69874  0.50738  0.34318  1.0000
  C   C124      1.0  0.71181  0.54547  0.34296  1.0000
  N   N32       1.0  0.68494  0.57518  0.34305  1.0000
  C   C125      1.0  0.64572  0.56719  0.34337  1.0000
  N   N33       1.0  0.63366  0.52906  0.34376  1.0000
  C   C126      1.0  0.34769  0.50601  0.34356  1.0000
  N   N34       1.0  0.30852  0.49787  0.34326  1.0000
  C   C127      1.0  0.29519  0.45988  0.34303  1.0000
  N   N35       1.0  0.32182  0.42995  0.34312  1.0000
  C   C128      1.0  0.36111  0.43766  0.34349  1.0000
  N   N36       1.0  0.37343  0.47570  0.34388  1.0000
  C   C129      1.0  0.01836  0.48985  0.42805  1.0000
  C   C130      1.0  0.98842  0.51946  0.42790  1.0000
  C   C131      1.0  0.03375  0.47480  0.51671  1.0000
  H   H109      1.0  0.05644  0.45248  0.51161  1.0000
  H   H110      1.0  0.00993  0.46155  0.55550  1.0000
  H   H111      1.0  0.04648  0.49903  0.55532  1.0000
  C   C132      1.0  0.97319  0.53468  0.51660  1.0000
  H   H112      1.0  0.95049  0.55699  0.51161  1.0000
  H   H113      1.0  0.99710  0.54799  0.55502  1.0000
  H   H114      1.0  0.96054  0.51050  0.55556  1.0000
  C   C133      1.0  0.51838  0.01725  0.42816  1.0000
  C   C134      1.0  0.48839  0.98742  0.42802  1.0000
  C   C135      1.0  0.53367  0.03257  0.51682  1.0000
  H   H115      1.0  0.55634  0.05512  0.51171  1.0000
  H   H116      1.0  0.54637  0.00851  0.55564  1.0000
  H   H117      1.0  0.50979  0.04562  0.55540  1.0000
  C   C136      1.0  0.47303  0.97218  0.51672  1.0000
  H   H118      1.0  0.45039  0.94959  0.51173  1.0000
  H   H119      1.0  0.46028  0.99628  0.55535  1.0000
  H   H120      1.0  0.49689  0.95920  0.55548  1.0000
  C   C137      1.0  0.05362  0.25361  0.34631  1.0000
  C   C138      1.0  0.05768  0.27446  0.42963  1.0000
  C   C139      1.0  0.06610  0.31591  0.42893  1.0000
  C   C140      1.0  0.07038  0.33626  0.34508  1.0000
  C   C141      1.0  0.07081  0.33941  0.51446  1.0000
  H   H121      1.0  0.06678  0.32312  0.57687  1.0000
  H   H122      1.0  0.04946  0.36326  0.51552  1.0000
  H   H123      1.0  0.10024  0.35213  0.51716  1.0000
  C   C142      1.0  0.05348  0.25334  0.51827  1.0000
  H   H124      1.0  0.04741  0.22191  0.51366  1.0000
  H   H125      1.0  0.02932  0.26609  0.55650  1.0000
  H   H126      1.0  0.08060  0.25628  0.55683  1.0000
  C   C143      1.0  0.95332  0.75510  0.34631  1.0000
  C   C144      1.0  0.94902  0.73429  0.42962  1.0000
  C   C145      1.0  0.94022  0.69292  0.42894  1.0000
  C   C146      1.0  0.93576  0.67257  0.34511  1.0000
  C   C147      1.0  0.93528  0.66948  0.51449  1.0000
  H   H127      1.0  0.93932  0.68577  0.57689  1.0000
  H   H128      1.0  0.95651  0.64551  0.51573  1.0000
  H   H129      1.0  0.90578  0.65692  0.51702  1.0000
  C   C148      1.0  0.95344  0.75537  0.51825  1.0000
  H   H130      1.0  0.95987  0.78674  0.51363  1.0000
  H   H131      1.0  0.97745  0.74235  0.55653  1.0000
  H   H132      1.0  0.92628  0.75275  0.55678  1.0000
  C   C149      1.0  0.75379  0.05358  0.34630  1.0000
  C   C150      1.0  0.73304  0.05769  0.42958  1.0000
  C   C151      1.0  0.69186  0.06616  0.42889  1.0000
  C   C152      1.0  0.67161  0.07047  0.34506  1.0000
  C   C153      1.0  0.66852  0.07090  0.51442  1.0000
  H   H133      1.0  0.68472  0.06696  0.57682  1.0000
  H   H134      1.0  0.64464  0.04937  0.51560  1.0000
  H   H135      1.0  0.65606  0.10043  0.51699  1.0000
  C   C154      1.0  0.75401  0.05345  0.51822  1.0000
  H   H136      1.0  0.78522  0.04726  0.51362  1.0000
  H   H137      1.0  0.74103  0.02921  0.55648  1.0000
  H   H138      1.0  0.75141  0.08071  0.55676  1.0000
  C   C155      1.0  0.25338  0.95429  0.34630  1.0000
  C   C156      1.0  0.27399  0.94961  0.42959  1.0000
  C   C157      1.0  0.31495  0.94012  0.42893  1.0000
  C   C158      1.0  0.33513  0.93540  0.34512  1.0000
  C   C159      1.0  0.33811  0.93466  0.51448  1.0000
  H   H139      1.0  0.32195  0.93874  0.57688  1.0000
  H   H140      1.0  0.36243  0.95568  0.51609  1.0000
  H   H141      1.0  0.34997  0.90486  0.51666  1.0000
  C   C160      1.0  0.25314  0.95440  0.51821  1.0000
  H   H142      1.0  0.22214  0.96157  0.51359  1.0000
  H   H143      1.0  0.26682  0.97820  0.55663  1.0000
  H   H144      1.0  0.25490  0.92703  0.55660  1.0000
  C   C161      1.0  0.43942  0.81343  0.42746  1.0000
  C   C162      1.0  0.44857  0.77222  0.42701  1.0000
  C   C163      1.0  0.43466  0.83439  0.51629  1.0000
  H   H145      1.0  0.42792  0.86562  0.51140  1.0000
  H   H146      1.0  0.46170  0.83237  0.55525  1.0000
  H   H147      1.0  0.41080  0.82096  0.55461  1.0000
  C   C164      1.0  0.45319  0.75098  0.51556  1.0000
  H   H148      1.0  0.46011  0.71981  0.51030  1.0000
  H   H149      1.0  0.42603  0.75277  0.55417  1.0000
  H   H150      1.0  0.47690  0.76437  0.55445  1.0000
  C   C165      1.0  0.56678  0.19151  0.42736  1.0000
  C   C166      1.0  0.55791  0.23278  0.42697  1.0000
  C   C167      1.0  0.57127  0.17046  0.51614  1.0000
  H   H151      1.0  0.57769  0.13916  0.51119  1.0000
  H   H152      1.0  0.54423  0.17272  0.55503  1.0000
  H   H153      1.0  0.59525  0.18364  0.55458  1.0000
  C   C168      1.0  0.55338  0.25401  0.51556  1.0000
  H   H154      1.0  0.54677  0.28526  0.51036  1.0000
  H   H155      1.0  0.58046  0.25194  0.55438  1.0000
  H   H156      1.0  0.52948  0.24082  0.55423  1.0000
  C   C169      1.0  0.81456  0.56716  0.42736  1.0000
  C   C170      1.0  0.77335  0.55839  0.42690  1.0000
  C   C171      1.0  0.83551  0.57177  0.51617  1.0000
  H   H157      1.0  0.86675  0.57808  0.51127  1.0000
  H   H158      1.0  0.83285  0.54470  0.55534  1.0000
  H   H159      1.0  0.82269  0.59599  0.55430  1.0000
  C   C172      1.0  0.75212  0.55398  0.51546  1.0000
  H   H160      1.0  0.72095  0.54745  0.51022  1.0000
  H   H161      1.0  0.75453  0.58122  0.55416  1.0000
  H   H162      1.0  0.76493  0.52997  0.55426  1.0000
  C   C173      1.0  0.19204  0.44037  0.42726  1.0000
  C   C174      1.0  0.23345  0.44807  0.42688  1.0000
  C   C175      1.0  0.17094  0.43640  0.51603  1.0000
  H   H163      1.0  0.13952  0.43108  0.51106  1.0000
  H   H164      1.0  0.17439  0.46339  0.55521  1.0000
  H   H165      1.0  0.18299  0.41180  0.55418  1.0000
  C   C176      1.0  0.25475  0.45195  0.51547  1.0000
  H   H166      1.0  0.28611  0.45749  0.51028  1.0000
  H   H167      1.0  0.25149  0.42487  0.55439  1.0000
  H   H168      1.0  0.24267  0.47642  0.55404  1.0000
  C   C177      1.0  0.14475  0.04807  0.34603  1.0000
  C   C178      1.0  0.13403  0.06599  0.42966  1.0000
  C   C179      1.0  0.10973  0.10029  0.42954  1.0000
  C   C180      1.0  0.09680  0.11653  0.34582  1.0000
  C   C181      1.0  0.09614  0.11967  0.51536  1.0000
  H   H169      1.0  0.10760  0.10719  0.57742  1.0000
  H   H170      1.0  0.06424  0.11786  0.52008  1.0000
  H   H171      1.0  0.10486  0.15066  0.51497  1.0000
  C   C182      1.0  0.14714  0.04862  0.51782  1.0000
  H   H172      1.0  0.16617  0.02310  0.51216  1.0000
  H   H173      1.0  0.12162  0.03937  0.55702  1.0000
  H   H174      1.0  0.16377  0.07060  0.55579  1.0000
  C   C183      1.0  0.86308  0.96093  0.34607  1.0000
  C   C184      1.0  0.87374  0.94301  0.42972  1.0000
  C   C185      1.0  0.89790  0.90861  0.42958  1.0000
  C   C186      1.0  0.91076  0.89234  0.34585  1.0000
  C   C187      1.0  0.91145  0.88920  0.51540  1.0000
  H   H175      1.0  0.90002  0.90170  0.57746  1.0000
  H   H176      1.0  0.94335  0.89093  0.52010  1.0000
  H   H177      1.0  0.90265  0.85824  0.51502  1.0000
  C   C188      1.0  0.86077  0.96047  0.51790  1.0000
  H   H178      1.0  0.84190  0.98612  0.51230  1.0000
  H   H179      1.0  0.88636  0.96957  0.55703  1.0000
  H   H180      1.0  0.84403  0.93860  0.55594  1.0000
  C   C189      1.0  0.96016  0.14440  0.34620  1.0000
  C   C190      1.0  0.94185  0.13429  0.42980  1.0000
  C   C191      1.0  0.90684  0.11082  0.42959  1.0000
  C   C192      1.0  0.89039  0.09810  0.34585  1.0000
  C   C193      1.0  0.88689  0.09788  0.51532  1.0000
  H   H181      1.0  0.89935  0.10951  0.57733  1.0000
  H   H182      1.0  0.88784  0.06583  0.52084  1.0000
  H   H183      1.0  0.85628  0.10713  0.51408  1.0000
  C   C194      1.0  0.95954  0.14701  0.51802  1.0000
  H   H184      1.0  0.98582  0.16516  0.51250  1.0000
  H   H185      1.0  0.96749  0.12114  0.55759  1.0000
  H   H186      1.0  0.93836  0.16457  0.55556  1.0000
  C   C195      1.0  0.04718  0.86417  0.34617  1.0000
  C   C196      1.0  0.06534  0.87451  0.42979  1.0000
  C   C197      1.0  0.10016  0.89826  0.42961  1.0000
  C   C198      1.0  0.11657  0.91100  0.34585  1.0000
  C   C199      1.0  0.11993  0.91146  0.51537  1.0000
  H   H187      1.0  0.10741  0.89993  0.57741  1.0000
  H   H188      1.0  0.11885  0.94352  0.52051  1.0000
  H   H189      1.0  0.15057  0.90232  0.51449  1.0000
  C   C200      1.0  0.04773  0.86165  0.51799  1.0000
  H   H190      1.0  0.02167  0.84318  0.51242  1.0000
  H   H191      1.0  0.03943  0.88747  0.55740  1.0000
  H   H192      1.0  0.06908  0.84439  0.55573  1.0000
  C   C201      1.0  0.39843  0.59729  0.42769  1.0000
  C   C202      1.0  0.37477  0.56234  0.42754  1.0000
  C   C203      1.0  0.41113  0.61496  0.51620  1.0000
  H   H193      1.0  0.42839  0.64190  0.51067  1.0000
  H   H194      1.0  0.42894  0.59388  0.55347  1.0000
  H   H195      1.0  0.38547  0.62252  0.55642  1.0000
  C   C204      1.0  0.36308  0.54395  0.51605  1.0000
  H   H196      1.0  0.34425  0.51809  0.51049  1.0000
  H   H197      1.0  0.34684  0.56513  0.55660  1.0000
  H   H198      1.0  0.38919  0.53487  0.55301  1.0000
  C   C205      1.0  0.60870  0.40772  0.42760  1.0000
  C   C206      1.0  0.63256  0.44254  0.42744  1.0000
  C   C207      1.0  0.59594  0.39012  0.51614  1.0000
  H   H199      1.0  0.57848  0.36330  0.51065  1.0000
  H   H200      1.0  0.57831  0.41131  0.55351  1.0000
  H   H201      1.0  0.62158  0.38236  0.55625  1.0000
  C   C208      1.0  0.64438  0.46085  0.51593  1.0000
  H   H202      1.0  0.66343  0.48656  0.51031  1.0000
  H   H203      1.0  0.66047  0.43956  0.55650  1.0000
  H   H204      1.0  0.61835  0.47014  0.55287  1.0000
  C   C209      1.0  0.59909  0.60864  0.42753  1.0000
  C   C210      1.0  0.56423  0.63197  0.42739  1.0000
  C   C211      1.0  0.61666  0.59603  0.51605  1.0000
  H   H205      1.0  0.64357  0.57910  0.51053  1.0000
  H   H206      1.0  0.59574  0.57778  0.55310  1.0000
  H   H207      1.0  0.62403  0.62186  0.55648  1.0000
  C   C212      1.0  0.54583  0.64336  0.51591  1.0000
  H   H208      1.0  0.52002  0.66194  0.51040  1.0000
  H   H209      1.0  0.56682  0.65992  0.55664  1.0000
  H   H210      1.0  0.53687  0.61696  0.55267  1.0000
  C   C213      1.0  0.40758  0.39606  0.42761  1.0000
  C   C214      1.0  0.44255  0.37288  0.42746  1.0000
  C   C215      1.0  0.38989  0.40848  0.51613  1.0000
  H   H211      1.0  0.36287  0.42525  0.51056  1.0000
  H   H212      1.0  0.41068  0.42683  0.55332  1.0000
  H   H213      1.0  0.38265  0.38257  0.55642  1.0000
  C   C216      1.0  0.46092  0.36145  0.51597  1.0000
  H   H214      1.0  0.48685  0.34303  0.51043  1.0000
  H   H215      1.0  0.43999  0.34470  0.55643  1.0000
  H   H216      1.0  0.46970  0.38783  0.55301  1.0000
