data_image0
_chemical_formula_structural       C2HC2H2CHCH2C3HCH3NHC3HCH3NHC4H2C4H2CH3CHC3HCH3NHC3HCH3NHC2HC2H2CHCH2C3HCH3NHC3HCH3NHC4H2C4H2CH3CHC3HCH3NHC3HCH3NHC2HC2H2CHCH2C3HCH3NHC3HCH3NHC4H2C4H2CH3CHC3HCH3NHC3HCH3NHC2HC2H2CHCH2C3HCH3NHC3HCH3NHC4H2C4H2CH3CHC3HCH3NHC3HCH3NH
_chemical_formula_sum              "C128 H136 N16"
_cell_length_a       30.2796
_cell_length_b       30.2796
_cell_length_c       14.988
_cell_angle_alpha    90
_cell_angle_beta     90
_cell_angle_gamma    90

_space_group_name_H-M_alt    "P 1"
_space_group_IT_number       1

loop_
  _space_group_symop_operation_xyz
  'x, y, z'

loop_
  _atom_site_type_symbol
  _atom_site_label
  _atom_site_symmetry_multiplicity
  _atom_site_fract_x
  _atom_site_fract_y
  _atom_site_fract_z
  _atom_site_occupancy
  C   C1        1.0  0.45977  0.40093  0.33479  1.0000
  C   C2        1.0  0.49227  0.43441  0.33149  1.0000
  H   H1        1.0  0.02464  0.42570  0.32351  1.0000
  C   C3        1.0  0.00949  0.05168  0.28385  1.0000
  C   C4        1.0  0.04229  0.08490  0.28157  1.0000
  H   H2        1.0  0.48227  0.05504  0.24389  1.0000
  H   H3        1.0  0.14530  0.06773  0.44618  1.0000
  C   C5        1.0  0.03717  0.12442  0.22360  1.0000
  H   H4        1.0  0.02985  0.11371  0.15548  1.0000
  C   C6        1.0  0.46884  0.35261  0.32983  1.0000
  H   H5        1.0  0.44701  0.33933  0.27802  1.0000
  H   H6        1.0  0.33835  0.45212  0.29881  1.0000
  C   C7        1.0  0.01557  0.27378  0.21006  1.0000
  C   C8        1.0  0.01101  0.22791  0.19459  1.0000
  C   C9        1.0  0.00852  0.19869  0.26906  1.0000
  H   H7        1.0  0.01580  0.29535  0.15747  1.0000
  C   C10       1.0  0.00744  0.21169  0.10114  1.0000
  H   H8        1.0  0.00772  0.23847  0.05232  1.0000
  H   H9        1.0  0.47668  0.19345  0.09227  1.0000
  H   H10       1.0  0.03520  0.19006  0.08583  1.0000
  N   N1        1.0  0.00102  0.15267  0.25857  1.0000
  H   H11       1.0  0.97148  0.14654  0.22729  1.0000
  C   C11       1.0  0.21790  0.01235  0.30812  1.0000
  C   C12       1.0  0.26390  0.01697  0.29499  1.0000
  C   C13       1.0  0.29236  0.01801  0.37102  1.0000
  H   H12       1.0  0.19708  0.01064  0.25439  1.0000
  C   C14       1.0  0.28093  0.02107  0.20208  1.0000
  H   H13       1.0  0.25466  0.02035  0.15216  1.0000
  H   H14       1.0  0.30356  0.49417  0.18671  1.0000
  H   H15       1.0  0.29833  0.05242  0.19463  1.0000
  N   N2        1.0  0.33917  0.01448  0.36263  1.0000
  H   H16       1.0  0.35085  0.03316  0.31074  1.0000
  C   C15       1.0  0.48095  0.47978  0.33844  1.0000
  C   C16       1.0  0.43572  0.49113  0.34736  1.0000
  C   C17       1.0  0.40235  0.45852  0.34945  1.0000
  C   C18       1.0  0.41524  0.41382  0.34431  1.0000
  H   H17       1.0  0.42708  0.02360  0.35394  1.0000
  H   H18       1.0  0.39131  0.38986  0.34653  1.0000
  C   C19       1.0  0.01424  0.01334  0.33724  1.0000
  C   C20       1.0  0.08019  0.07974  0.33539  1.0000
  C   C21       1.0  0.08595  0.04222  0.39003  1.0000
  C   C22       1.0  0.05292  0.00924  0.38976  1.0000
  H   H19       1.0  0.10421  0.10351  0.33413  1.0000
  H   H20       1.0  0.05693  0.48213  0.42980  1.0000
  C   C23       1.0  0.12692  0.03660  0.44345  1.0000
  H   H21       1.0  0.11844  0.02811  0.51233  1.0000
  H   H22       1.0  0.06813  0.14304  0.22057  1.0000
  H   H23       1.0  0.45869  0.33822  0.39367  1.0000
  C   C24       1.0  0.35415  0.46771  0.35638  1.0000
  H   H24       1.0  0.34248  0.45046  0.41609  1.0000
  C   C25       1.0  0.01683  0.29116  0.29703  1.0000
  C   C26       1.0  0.01108  0.21573  0.35743  1.0000
  C   C27       1.0  0.01503  0.26181  0.36995  1.0000
  H   H25       1.0  0.01526  0.27459  0.43321  1.0000
  C   C28       1.0  0.00866  0.18779  0.43908  1.0000
  H   H26       1.0  0.00566  0.15263  0.42495  1.0000
  H   H27       1.0  0.48011  0.19751  0.47902  1.0000
  H   H28       1.0  0.03849  0.19246  0.47891  1.0000
  N   N3        1.0  0.01449  0.33771  0.30832  1.0000
  H   H29       1.0  0.03614  0.34724  0.35741  1.0000
  C   C29       1.0  0.19976  0.00862  0.39402  1.0000
  C   C30       1.0  0.27391  0.01668  0.45851  1.0000
  C   C31       1.0  0.22779  0.01160  0.46865  1.0000
  H   H30       1.0  0.21427  0.00913  0.53108  1.0000
  C   C32       1.0  0.30083  0.01893  0.54152  1.0000
  H   H31       1.0  0.33585  0.02449  0.52897  1.0000
  H   H32       1.0  0.29751  0.48809  0.57868  1.0000
  H   H33       1.0  0.28912  0.04604  0.58332  1.0000
  N   N4        1.0  0.15387  0.00120  0.40174  1.0000
  H   H34       1.0  0.14826  0.97136  0.43232  1.0000
  C   C33       1.0  0.45977  0.90093  0.33479  1.0000
  C   C34       1.0  0.49227  0.93442  0.33149  1.0000
  H   H35       1.0  0.02464  0.92570  0.32351  1.0000
  C   C35       1.0  0.00949  0.55168  0.28385  1.0000
  C   C36       1.0  0.04229  0.58491  0.28157  1.0000
  H   H36       1.0  0.48227  0.55504  0.24389  1.0000
  H   H37       1.0  0.14530  0.56773  0.44618  1.0000
  C   C37       1.0  0.03717  0.62442  0.22360  1.0000
  H   H38       1.0  0.02985  0.61371  0.15548  1.0000
  C   C38       1.0  0.46884  0.85261  0.32983  1.0000
  H   H39       1.0  0.44701  0.83933  0.27802  1.0000
  H   H40       1.0  0.33835  0.95212  0.29881  1.0000
  C   C39       1.0  0.01557  0.77378  0.21006  1.0000
  C   C40       1.0  0.01101  0.72791  0.19459  1.0000
  C   C41       1.0  0.00852  0.69869  0.26906  1.0000
  H   H41       1.0  0.01580  0.79535  0.15747  1.0000
  C   C42       1.0  0.00744  0.71169  0.10114  1.0000
  H   H42       1.0  0.00772  0.73846  0.05232  1.0000
  H   H43       1.0  0.47668  0.69345  0.09227  1.0000
  H   H44       1.0  0.03520  0.69006  0.08583  1.0000
  N   N5        1.0  0.00102  0.65267  0.25857  1.0000
  H   H45       1.0  0.97148  0.64654  0.22729  1.0000
  C   C43       1.0  0.21790  0.51235  0.30812  1.0000
  C   C44       1.0  0.26390  0.51697  0.29499  1.0000
  C   C45       1.0  0.29236  0.51802  0.37102  1.0000
  H   H46       1.0  0.19708  0.51063  0.25439  1.0000
  C   C46       1.0  0.28093  0.52107  0.20208  1.0000
  H   H47       1.0  0.25466  0.52035  0.15216  1.0000
  H   H48       1.0  0.30356  0.99417  0.18671  1.0000
  H   H49       1.0  0.29833  0.55242  0.19463  1.0000
  N   N6        1.0  0.33917  0.51448  0.36263  1.0000
  H   H50       1.0  0.35085  0.53316  0.31074  1.0000
  C   C47       1.0  0.48095  0.97978  0.33844  1.0000
  C   C48       1.0  0.43572  0.99113  0.34736  1.0000
  C   C49       1.0  0.40235  0.95852  0.34945  1.0000
  C   C50       1.0  0.41524  0.91382  0.34431  1.0000
  H   H51       1.0  0.42708  0.52360  0.35394  1.0000
  H   H52       1.0  0.39131  0.88986  0.34653  1.0000
  C   C51       1.0  0.01424  0.51335  0.33724  1.0000
  C   C52       1.0  0.08019  0.57974  0.33539  1.0000
  C   C53       1.0  0.08595  0.54222  0.39003  1.0000
  C   C54       1.0  0.05292  0.50924  0.38976  1.0000
  H   H53       1.0  0.10421  0.60352  0.33413  1.0000
  H   H54       1.0  0.05693  0.98213  0.42980  1.0000
  C   C55       1.0  0.12692  0.53661  0.44345  1.0000
  H   H55       1.0  0.11844  0.52811  0.51233  1.0000
  H   H56       1.0  0.06813  0.64304  0.22057  1.0000
  H   H57       1.0  0.45869  0.83822  0.39367  1.0000
  C   C56       1.0  0.35415  0.96771  0.35638  1.0000
  H   H58       1.0  0.34248  0.95046  0.41609  1.0000
  C   C57       1.0  0.01683  0.79116  0.29703  1.0000
  C   C58       1.0  0.01108  0.71573  0.35743  1.0000
  C   C59       1.0  0.01503  0.76181  0.36995  1.0000
  H   H59       1.0  0.01526  0.77459  0.43321  1.0000
  C   C60       1.0  0.00866  0.68779  0.43908  1.0000
  H   H60       1.0  0.00566  0.65262  0.42495  1.0000
  H   H61       1.0  0.48011  0.69751  0.47902  1.0000
  H   H62       1.0  0.03849  0.69246  0.47891  1.0000
  N   N7        1.0  0.01449  0.83771  0.30832  1.0000
  H   H63       1.0  0.03614  0.84724  0.35741  1.0000
  C   C61       1.0  0.19976  0.50862  0.39402  1.0000
  C   C62       1.0  0.27391  0.51668  0.45851  1.0000
  C   C63       1.0  0.22779  0.51160  0.46865  1.0000
  H   H64       1.0  0.21427  0.50914  0.53108  1.0000
  C   C64       1.0  0.30083  0.51892  0.54152  1.0000
  H   H65       1.0  0.33585  0.52448  0.52897  1.0000
  H   H66       1.0  0.29751  0.98809  0.57868  1.0000
  H   H67       1.0  0.28912  0.54604  0.58332  1.0000
  N   N8        1.0  0.15387  0.50120  0.40174  1.0000
  H   H68       1.0  0.14826  0.47136  0.43232  1.0000
  C   C65       1.0  0.95977  0.40093  0.33479  1.0000
  C   C66       1.0  0.99227  0.43441  0.33149  1.0000
  H   H69       1.0  0.52464  0.42570  0.32351  1.0000
  C   C67       1.0  0.50950  0.05168  0.28385  1.0000
  C   C68       1.0  0.54229  0.08490  0.28157  1.0000
  H   H70       1.0  0.98227  0.05504  0.24389  1.0000
  H   H71       1.0  0.64530  0.06773  0.44618  1.0000
  C   C69       1.0  0.53717  0.12442  0.22360  1.0000
  H   H72       1.0  0.52985  0.11371  0.15548  1.0000
  C   C70       1.0  0.96884  0.35261  0.32983  1.0000
  H   H73       1.0  0.94701  0.33933  0.27802  1.0000
  H   H74       1.0  0.83835  0.45212  0.29881  1.0000
  C   C71       1.0  0.51557  0.27378  0.21006  1.0000
  C   C72       1.0  0.51101  0.22791  0.19459  1.0000
  C   C73       1.0  0.50852  0.19869  0.26906  1.0000
  H   H75       1.0  0.51580  0.29535  0.15747  1.0000
  C   C74       1.0  0.50744  0.21169  0.10114  1.0000
  H   H76       1.0  0.50772  0.23847  0.05232  1.0000
  H   H77       1.0  0.97668  0.19345  0.09227  1.0000
  H   H78       1.0  0.53520  0.19006  0.08583  1.0000
  N   N9        1.0  0.50102  0.15267  0.25857  1.0000
  H   H79       1.0  0.47148  0.14654  0.22729  1.0000
  C   C75       1.0  0.71790  0.01235  0.30812  1.0000
  C   C76       1.0  0.76390  0.01697  0.29499  1.0000
  C   C77       1.0  0.79236  0.01801  0.37102  1.0000
  H   H80       1.0  0.69708  0.01064  0.25439  1.0000
  C   C78       1.0  0.78093  0.02107  0.20208  1.0000
  H   H81       1.0  0.75466  0.02035  0.15216  1.0000
  H   H82       1.0  0.80356  0.49417  0.18671  1.0000
  H   H83       1.0  0.79833  0.05242  0.19463  1.0000
  N   N10       1.0  0.83917  0.01448  0.36263  1.0000
  H   H84       1.0  0.85085  0.03316  0.31074  1.0000
  C   C79       1.0  0.98095  0.47978  0.33844  1.0000
  C   C80       1.0  0.93572  0.49113  0.34736  1.0000
  C   C81       1.0  0.90235  0.45852  0.34945  1.0000
  C   C82       1.0  0.91523  0.41382  0.34431  1.0000
  H   H85       1.0  0.92708  0.02360  0.35394  1.0000
  H   H86       1.0  0.89131  0.38986  0.34653  1.0000
  C   C83       1.0  0.51424  0.01334  0.33724  1.0000
  C   C84       1.0  0.58019  0.07974  0.33539  1.0000
  C   C85       1.0  0.58596  0.04222  0.39003  1.0000
  C   C86       1.0  0.55291  0.00924  0.38976  1.0000
  H   H87       1.0  0.60421  0.10351  0.33413  1.0000
  H   H88       1.0  0.55693  0.48213  0.42980  1.0000
  C   C87       1.0  0.62691  0.03660  0.44345  1.0000
  H   H89       1.0  0.61844  0.02811  0.51233  1.0000
  H   H90       1.0  0.56813  0.14304  0.22057  1.0000
  H   H91       1.0  0.95868  0.33822  0.39367  1.0000
  C   C88       1.0  0.85415  0.46771  0.35638  1.0000
  H   H92       1.0  0.84248  0.45046  0.41609  1.0000
  C   C89       1.0  0.51683  0.29116  0.29703  1.0000
  C   C90       1.0  0.51108  0.21573  0.35743  1.0000
  C   C91       1.0  0.51503  0.26181  0.36995  1.0000
  H   H93       1.0  0.51526  0.27459  0.43321  1.0000
  C   C92       1.0  0.50866  0.18779  0.43908  1.0000
  H   H94       1.0  0.50566  0.15263  0.42495  1.0000
  H   H95       1.0  0.98011  0.19751  0.47902  1.0000
  H   H96       1.0  0.53848  0.19246  0.47891  1.0000
  N   N11       1.0  0.51449  0.33771  0.30832  1.0000
  H   H97       1.0  0.53614  0.34724  0.35741  1.0000
  C   C93       1.0  0.69976  0.00862  0.39402  1.0000
  C   C94       1.0  0.77391  0.01668  0.45851  1.0000
  C   C95       1.0  0.72779  0.01160  0.46865  1.0000
  H   H98       1.0  0.71426  0.00913  0.53108  1.0000
  C   C96       1.0  0.80083  0.01893  0.54152  1.0000
  H   H99       1.0  0.83585  0.02449  0.52897  1.0000
  H   H100      1.0  0.79751  0.48809  0.57868  1.0000
  H   H101      1.0  0.78912  0.04604  0.58332  1.0000
  N   N12       1.0  0.65387  0.00120  0.40174  1.0000
  H   H102      1.0  0.64826  0.97136  0.43232  1.0000
  C   C97       1.0  0.95977  0.90093  0.33479  1.0000
  C   C98       1.0  0.99227  0.93442  0.33149  1.0000
  H   H103      1.0  0.52464  0.92570  0.32351  1.0000
  C   C99       1.0  0.50950  0.55168  0.28385  1.0000
  C   C100      1.0  0.54229  0.58491  0.28157  1.0000
  H   H104      1.0  0.98227  0.55504  0.24389  1.0000
  H   H105      1.0  0.64530  0.56773  0.44618  1.0000
  C   C101      1.0  0.53717  0.62442  0.22360  1.0000
  H   H106      1.0  0.52985  0.61371  0.15548  1.0000
  C   C102      1.0  0.96884  0.85261  0.32983  1.0000
  H   H107      1.0  0.94701  0.83933  0.27802  1.0000
  H   H108      1.0  0.83835  0.95212  0.29881  1.0000
  C   C103      1.0  0.51557  0.77378  0.21006  1.0000
  C   C104      1.0  0.51101  0.72791  0.19459  1.0000
  C   C105      1.0  0.50852  0.69869  0.26906  1.0000
  H   H109      1.0  0.51580  0.79535  0.15747  1.0000
  C   C106      1.0  0.50744  0.71169  0.10114  1.0000
  H   H110      1.0  0.50772  0.73846  0.05232  1.0000
  H   H111      1.0  0.97668  0.69345  0.09227  1.0000
  H   H112      1.0  0.53520  0.69006  0.08583  1.0000
  N   N13       1.0  0.50102  0.65267  0.25857  1.0000
  H   H113      1.0  0.47148  0.64654  0.22729  1.0000
  C   C107      1.0  0.71790  0.51235  0.30812  1.0000
  C   C108      1.0  0.76390  0.51697  0.29499  1.0000
  C   C109      1.0  0.79236  0.51802  0.37102  1.0000
  H   H114      1.0  0.69708  0.51063  0.25439  1.0000
  C   C110      1.0  0.78093  0.52107  0.20208  1.0000
  H   H115      1.0  0.75466  0.52035  0.15216  1.0000
  H   H116      1.0  0.80356  0.99417  0.18671  1.0000
  H   H117      1.0  0.79833  0.55242  0.19463  1.0000
  N   N14       1.0  0.83917  0.51448  0.36263  1.0000
  H   H118      1.0  0.85085  0.53316  0.31074  1.0000
  C   C111      1.0  0.98095  0.97978  0.33844  1.0000
  C   C112      1.0  0.93572  0.99113  0.34736  1.0000
  C   C113      1.0  0.90235  0.95852  0.34945  1.0000
  C   C114      1.0  0.91523  0.91382  0.34431  1.0000
  H   H119      1.0  0.92708  0.52360  0.35394  1.0000
  H   H120      1.0  0.89131  0.88986  0.34653  1.0000
  C   C115      1.0  0.51424  0.51335  0.33724  1.0000
  C   C116      1.0  0.58019  0.57974  0.33539  1.0000
  C   C117      1.0  0.58596  0.54222  0.39003  1.0000
  C   C118      1.0  0.55291  0.50924  0.38976  1.0000
  H   H121      1.0  0.60421  0.60352  0.33413  1.0000
  H   H122      1.0  0.55693  0.98213  0.42980  1.0000
  C   C119      1.0  0.62691  0.53661  0.44345  1.0000
  H   H123      1.0  0.61844  0.52811  0.51233  1.0000
  H   H124      1.0  0.56813  0.64304  0.22057  1.0000
  H   H125      1.0  0.95868  0.83822  0.39367  1.0000
  C   C120      1.0  0.85415  0.96771  0.35638  1.0000
  H   H126      1.0  0.84248  0.95046  0.41609  1.0000
  C   C121      1.0  0.51683  0.79116  0.29703  1.0000
  C   C122      1.0  0.51108  0.71573  0.35743  1.0000
  C   C123      1.0  0.51503  0.76181  0.36995  1.0000
  H   H127      1.0  0.51526  0.77459  0.43321  1.0000
  C   C124      1.0  0.50866  0.68779  0.43908  1.0000
  H   H128      1.0  0.50566  0.65262  0.42495  1.0000
  H   H129      1.0  0.98011  0.69751  0.47902  1.0000
  H   H130      1.0  0.53848  0.69246  0.47891  1.0000
  N   N15       1.0  0.51449  0.83771  0.30832  1.0000
  H   H131      1.0  0.53614  0.84724  0.35741  1.0000
  C   C125      1.0  0.69976  0.50862  0.39402  1.0000
  C   C126      1.0  0.77391  0.51668  0.45851  1.0000
  C   C127      1.0  0.72779  0.51160  0.46865  1.0000
  H   H132      1.0  0.71426  0.50914  0.53108  1.0000
  C   C128      1.0  0.80083  0.51892  0.54152  1.0000
  H   H133      1.0  0.83585  0.52448  0.52897  1.0000
  H   H134      1.0  0.79751  0.98809  0.57868  1.0000
  H   H135      1.0  0.78912  0.54604  0.58332  1.0000
  N   N16       1.0  0.65387  0.50120  0.40174  1.0000
  H   H136      1.0  0.64826  0.47136  0.43232  1.0000
