data_image0
_chemical_formula_structural       C5HC6HCHC2HN3CHNC2H3C3N2HCHCNHCNC3N2C8HC8H3C2H2C8HC7HCH4C3H3NC2HN2C2HN2C2N2C2HNC4H2C2H3CH2CNC2N2CNC2N2CNC2N2CNC2N2
_chemical_formula_sum              "C90 H36 N30"
_cell_length_a       30.6408
_cell_length_b       30.6409
_cell_length_c       14.6348
_cell_angle_alpha    90.0002
_cell_angle_beta     89.9998
_cell_angle_gamma    120

_space_group_name_H-M_alt    "P 1"
_space_group_IT_number       1

loop_
  _space_group_symop_operation_xyz
  'x, y, z'

loop_
  _atom_site_type_symbol
  _atom_site_label
  _atom_site_symmetry_multiplicity
  _atom_site_fract_x
  _atom_site_fract_y
  _atom_site_fract_z
  _atom_site_occupancy
  C   C1        1.0  0.05712  0.56148  0.36858  1.0000
  C   C2        1.0  0.04149  0.46220  0.36578  1.0000
  C   C3        1.0  0.09200  0.50277  0.36570  1.0000
  C   C4        1.0  0.09907  0.55284  0.36663  1.0000
  C   C5        1.0  0.14729  0.59620  0.36151  1.0000
  H   H1        1.0  0.03540  0.42610  0.36620  1.0000
  C   C6        1.0  0.06472  0.61223  0.36857  1.0000
  C   C7        1.0  0.02276  0.62087  0.36655  1.0000
  C   C8        1.0  0.02984  0.67095  0.36562  1.0000
  C   C9        1.0  0.08034  0.71152  0.36574  1.0000
  C   C10       1.0  0.12315  0.70549  0.36853  1.0000
  C   C11       1.0  0.11461  0.65499  0.36814  1.0000
  H   H2        1.0  0.08643  0.74761  0.36616  1.0000
  C   C12       1.0  0.15483  0.64497  0.36268  1.0000
  H   H3        1.0  0.17897  0.59414  0.35317  1.0000
  C   C13       1.0  0.12996  0.48844  0.36542  1.0000
  C   C14       1.0  0.17198  0.74940  0.37310  1.0000
  H   H4        1.0  0.11886  0.45093  0.36091  1.0000
  N   N1        1.0  0.18038  0.51945  0.37261  1.0000
  N   N2        1.0  0.18341  0.79830  0.36586  1.0000
  N   N3        1.0  0.21802  0.46762  0.36138  1.0000
  C   C15       1.0  0.25874  0.46081  0.35949  1.0000
  H   H5        1.0  0.25345  0.42540  0.35077  1.0000
  N   N4        1.0  0.28460  0.92976  0.36132  1.0000
  C   C16       1.0  0.23707  0.88905  0.35942  1.0000
  C   C17       1.0  0.23016  0.84016  0.36875  1.0000
  H   H6        1.0  0.20695  0.89434  0.35069  1.0000
  H   H7        1.0  0.19130  0.67290  0.35531  1.0000
  H   H8        1.0  0.20222  0.74484  0.38364  1.0000
  C   C18       1.0  0.22147  0.51344  0.37226  1.0000
  C   C19       1.0  0.27050  0.55570  0.38179  1.0000
  C   C20       1.0  0.27971  0.60168  0.39270  1.0000
  N   N5        1.0  0.28805  0.64233  0.40254  1.0000
  N   N6        1.0  0.27268  0.83706  0.37952  1.0000
  H   H9        1.0  0.40017  0.45161  0.36614  1.0000
  C   C21       1.0  0.39346  0.01781  0.36532  1.0000
  H   H10       1.0  0.36704  0.02890  0.36078  1.0000
  C   C22       1.0  0.30763  0.50279  0.36878  1.0000
  N   N7        1.0  0.34948  0.49791  0.36590  1.0000
  H   H11       1.0  0.39948  0.23288  0.35071  1.0000
  C   C23       1.0  0.39839  0.53539  0.37311  1.0000
  N   N8        1.0  0.31073  0.54842  0.37950  1.0000
  C   C24       1.0  0.32697  0.92631  0.37226  1.0000
  C   C25       1.0  0.32019  0.87728  0.38182  1.0000
  C   C26       1.0  0.35696  0.86807  0.39277  1.0000
  N   N9        1.0  0.38927  0.85973  0.40263  1.0000
  N   N10       1.0  0.37407  0.96739  0.37259  1.0000
  C   C27       1.0  0.58629  0.60844  0.36861  1.0000
  C   C28       1.0  0.62905  0.60130  0.36816  1.0000
  C   C29       1.0  0.67955  0.64326  0.36853  1.0000
  C   C30       1.0  0.68558  0.69210  0.36577  1.0000
  C   C31       1.0  0.64501  0.70203  0.36565  1.0000
  C   C32       1.0  0.59494  0.65903  0.36661  1.0000
  C   C33       1.0  0.61904  0.55106  0.36260  1.0000
  C   C34       1.0  0.55158  0.66388  0.36135  1.0000
  H   H12       1.0  0.72167  0.72210  0.36613  1.0000
  C   C35       1.0  0.53555  0.56528  0.36860  1.0000
  C   C36       1.0  0.52691  0.51469  0.36657  1.0000
  C   C37       1.0  0.47683  0.47168  0.36562  1.0000
  C   C38       1.0  0.43626  0.48162  0.36576  1.0000
  C   C39       1.0  0.44230  0.53046  0.36854  1.0000
  C   C40       1.0  0.49279  0.57242  0.36814  1.0000
  C   C41       1.0  0.57026  0.50983  0.36132  1.0000
  C   C42       1.0  0.50280  0.62266  0.36266  1.0000
  H   H13       1.0  0.56820  0.47611  0.35270  1.0000
  H   H14       1.0  0.64696  0.54253  0.35492  1.0000
  H   H15       1.0  0.55364  0.69761  0.35280  1.0000
  C   C43       1.0  0.65933  0.75432  0.36536  1.0000
  C   C44       1.0  0.46251  0.41940  0.36535  1.0000
  H   H16       1.0  0.69684  0.78074  0.36084  1.0000
  H   H17       1.0  0.42500  0.39298  0.36083  1.0000
  C   C45       1.0  0.53934  0.09065  0.36860  1.0000
  C   C46       1.0  0.54648  0.14055  0.36813  1.0000
  C   C47       1.0  0.50452  0.14908  0.36852  1.0000
  C   C48       1.0  0.45568  0.10628  0.36572  1.0000
  C   C49       1.0  0.44575  0.05578  0.36559  1.0000
  C   C50       1.0  0.48875  0.04870  0.36656  1.0000
  C   C51       1.0  0.59672  0.18077  0.36262  1.0000
  C   C52       1.0  0.48389  0.00050  0.36126  1.0000
  H   H18       1.0  0.42568  0.11237  0.36611  1.0000
  C   C53       1.0  0.58250  0.08306  0.36860  1.0000
  C   C54       1.0  0.63309  0.12501  0.36663  1.0000
  C   C55       1.0  0.67609  0.11794  0.36564  1.0000
  C   C56       1.0  0.66615  0.06743  0.36575  1.0000
  C   C57       1.0  0.61731  0.02463  0.36851  1.0000
  C   C58       1.0  0.57535  0.03317  0.36812  1.0000
  C   C59       1.0  0.63795  0.17323  0.36142  1.0000
  H   H19       1.0  0.69616  0.06134  0.36611  1.0000
  C   C60       1.0  0.52512  0.99295  0.36251  1.0000
  H   H20       1.0  0.67167  0.20489  0.35282  1.0000
  H   H21       1.0  0.60525  0.21722  0.35502  1.0000
  H   H22       1.0  0.51660  0.95651  0.35468  1.0000
  H   H23       1.0  0.45018  0.96885  0.35243  1.0000
  C   C61       1.0  0.61238  0.97580  0.37310  1.0000
  C   C62       1.0  0.72838  0.15590  0.36536  1.0000
  C   C63       1.0  0.50945  0.19792  0.37310  1.0000
  H   H24       1.0  0.57758  0.94557  0.38372  1.0000
  H   H25       1.0  0.75479  0.14481  0.36083  1.0000
  H   H26       1.0  0.54424  0.22815  0.38368  1.0000
  N   N11       1.0  0.68015  0.86319  0.36135  1.0000
  C   C64       1.0  0.68695  0.91071  0.35943  1.0000
  C   C65       1.0  0.64496  0.91761  0.36875  1.0000
  H   H27       1.0  0.72235  0.94083  0.35070  1.0000
  N   N12       1.0  0.64985  0.96436  0.36586  1.0000
  N   N13       1.0  0.90382  0.70609  0.36137  1.0000
  C   C66       1.0  0.86310  0.71290  0.35947  1.0000
  C   C67       1.0  0.81421  0.67091  0.36878  1.0000
  H   H28       1.0  0.86839  0.74830  0.35073  1.0000
  N   N14       1.0  0.77236  0.67580  0.36589  1.0000
  N   N15       1.0  0.44169  0.31053  0.36134  1.0000
  C   C68       1.0  0.43488  0.26300  0.35943  1.0000
  C   C69       1.0  0.47687  0.25610  0.36874  1.0000
  N   N16       1.0  0.47197  0.20935  0.36586  1.0000
  N   N17       1.0  0.83725  0.24396  0.36135  1.0000
  C   C70       1.0  0.88478  0.28467  0.35945  1.0000
  C   C71       1.0  0.89168  0.33356  0.36877  1.0000
  H   H29       1.0  0.91490  0.27939  0.35070  1.0000
  N   N18       1.0  0.93843  0.37542  0.36587  1.0000
  C   C72       1.0  0.00723  0.51873  0.36810  1.0000
  C   C73       1.0  0.99870  0.46824  0.36852  1.0000
  C   C74       1.0  0.96701  0.52875  0.36247  1.0000
  C   C75       1.0  0.97455  0.57752  0.36139  1.0000
  H   H30       1.0  0.94290  0.57958  0.35270  1.0000
  H   H31       1.0  0.93056  0.50082  0.35496  1.0000
  C   C76       1.0  0.99187  0.68527  0.36536  1.0000
  C   C77       1.0  0.94986  0.42433  0.37308  1.0000
  H   H32       1.0  0.00297  0.72278  0.36086  1.0000
  H   H33       1.0  0.91962  0.42889  0.38364  1.0000
  H   H34       1.0  0.47488  0.63119  0.35498  1.0000
  C   C78       1.0  0.72345  0.63833  0.37312  1.0000
  H   H35       1.0  0.40295  0.57018  0.38368  1.0000
  H   H36       1.0  0.71889  0.60353  0.38372  1.0000
  C   C79       1.0  0.63432  0.82081  0.37226  1.0000
  N   N19       1.0  0.59934  0.87509  0.37951  1.0000
  C   C80       1.0  0.59207  0.82759  0.38181  1.0000
  C   C81       1.0  0.54608  0.79082  0.39274  1.0000
  N   N20       1.0  0.50544  0.75851  0.40258  1.0000
  N   N21       1.0  0.62831  0.77372  0.37260  1.0000
  C   C82       1.0  0.90037  0.66026  0.37227  1.0000
  N   N22       1.0  0.81111  0.62529  0.37953  1.0000
  C   C83       1.0  0.85134  0.61801  0.38182  1.0000
  C   C84       1.0  0.84213  0.57202  0.39275  1.0000
  N   N23       1.0  0.83379  0.53138  0.40259  1.0000
  N   N24       1.0  0.94146  0.65425  0.37260  1.0000
  C   C85       1.0  0.48752  0.35291  0.37226  1.0000
  N   N25       1.0  0.52249  0.29862  0.37949  1.0000
  C   C86       1.0  0.52977  0.34612  0.38179  1.0000
  C   C87       1.0  0.57575  0.38290  0.39272  1.0000
  N   N26       1.0  0.61640  0.41520  0.40257  1.0000
  N   N27       1.0  0.49353  0.40000  0.37259  1.0000
  C   C88       1.0  0.79487  0.24740  0.37227  1.0000
  N   N28       1.0  0.84916  0.33666  0.37952  1.0000
  C   C89       1.0  0.80165  0.29644  0.38182  1.0000
  C   C90       1.0  0.76488  0.30565  0.39276  1.0000
  N   N29       1.0  0.73258  0.31398  0.40262  1.0000
  N   N30       1.0  0.74778  0.20632  0.37261  1.0000
