data_image0
_chemical_formula_structural       NC2HNC5HC6HCH2C2H2CNC2HN3CNH2CNCHNHCH2CH2NC8HC8H3C2H2C8HC7HCH4C3H3NC2HN2C2HN2C2N2C2HNC4H2C2H3CHCNCNH2NCNCNH2NCNCNH2NCNCNH2N
_chemical_formula_sum              "N30 C84 H48"
_cell_length_a       30.6201
_cell_length_b       30.6201
_cell_length_c       14.62
_cell_angle_alpha    90.0002
_cell_angle_beta     89.9998
_cell_angle_gamma    120

_space_group_name_H-M_alt    "P 1"
_space_group_IT_number       1

loop_
  _space_group_symop_operation_xyz
  'x, y, z'

loop_
  _atom_site_type_symbol
  _atom_site_label
  _atom_site_symmetry_multiplicity
  _atom_site_fract_x
  _atom_site_fract_y
  _atom_site_fract_z
  _atom_site_occupancy
  N   N1        1.0  0.21906  0.46899  0.36841  1.0000
  C   C1        1.0  0.23815  0.88969  0.36588  1.0000
  C   C2        1.0  0.23049  0.84058  0.37667  1.0000
  H   H1        1.0  0.20845  0.89540  0.35480  1.0000
  N   N2        1.0  0.18367  0.79882  0.37215  1.0000
  C   C3        1.0  0.05804  0.56205  0.37189  1.0000
  C   C4        1.0  0.04308  0.46296  0.37094  1.0000
  C   C5        1.0  0.09350  0.50382  0.36984  1.0000
  C   C6        1.0  0.10018  0.55374  0.36903  1.0000
  C   C7        1.0  0.14807  0.59713  0.35902  1.0000
  H   H2        1.0  0.03724  0.42694  0.37295  1.0000
  C   C8        1.0  0.06532  0.61266  0.37189  1.0000
  C   C9        1.0  0.02318  0.62097  0.36901  1.0000
  C   C10       1.0  0.02985  0.67089  0.36978  1.0000
  C   C11       1.0  0.08028  0.71175  0.37090  1.0000
  C   C12       1.0  0.12327  0.70596  0.37312  1.0000
  C   C13       1.0  0.11510  0.65559  0.37106  1.0000
  H   H3        1.0  0.08612  0.74776  0.37291  1.0000
  C   C14       1.0  0.15543  0.64591  0.36118  1.0000
  H   H4        1.0  0.19146  0.67407  0.34978  1.0000
  H   H5        1.0  0.17910  0.59475  0.34445  1.0000
  C   C15       1.0  0.13197  0.49015  0.37124  1.0000
  C   C16       1.0  0.17205  0.74982  0.37967  1.0000
  H   H6        1.0  0.12120  0.45271  0.36643  1.0000
  H   H7        1.0  0.20202  0.74495  0.39198  1.0000
  C   C17       1.0  0.22304  0.51493  0.38200  1.0000
  N   N3        1.0  0.18229  0.52155  0.38138  1.0000
  C   C18       1.0  0.25935  0.46147  0.36593  1.0000
  C   C19       1.0  0.30845  0.50292  0.37670  1.0000
  H   H8        1.0  0.25363  0.42605  0.35487  1.0000
  N   N4        1.0  0.35022  0.49786  0.37217  1.0000
  N   N5        1.0  0.28596  0.92998  0.36834  1.0000
  N   N6        1.0  0.31192  0.54851  0.39026  1.0000
  C   C20       1.0  0.27225  0.55683  0.39402  1.0000
  N   N7        1.0  0.28263  0.60471  0.40910  1.0000
  H   H9        1.0  0.25610  0.61298  0.41595  1.0000
  H   H10       1.0  0.31725  0.63177  0.41763  1.0000
  C   C21       1.0  0.32791  0.92599  0.38194  1.0000
  N   N8        1.0  0.27262  0.83712  0.39025  1.0000
  C   C22       1.0  0.32061  0.87679  0.39399  1.0000
  H   H11       1.0  0.35056  0.83180  0.41761  1.0000
  N   N9        1.0  0.35812  0.86642  0.40908  1.0000
  H   H12       1.0  0.40127  0.45137  0.37284  1.0000
  C   C23       1.0  0.39419  0.01706  0.37113  1.0000
  H   H13       1.0  0.36751  0.02782  0.36628  1.0000
  H   H14       1.0  0.40040  0.23411  0.35479  1.0000
  C   C24       1.0  0.39922  0.53525  0.37968  1.0000
  H   H15       1.0  0.40408  0.57009  0.39198  1.0000
  H   H16       1.0  0.39292  0.89295  0.41587  1.0000
  N   N10       1.0  0.37528  0.96674  0.38131  1.0000
  C   C25       1.0  0.58699  0.60901  0.37194  1.0000
  C   C26       1.0  0.62991  0.60216  0.37115  1.0000
  C   C27       1.0  0.68028  0.64436  0.37315  1.0000
  C   C28       1.0  0.68607  0.69315  0.37093  1.0000
  C   C29       1.0  0.64521  0.70271  0.36981  1.0000
  C   C30       1.0  0.59529  0.65946  0.36907  1.0000
  C   C31       1.0  0.62024  0.55216  0.36123  1.0000
  C   C32       1.0  0.55190  0.66396  0.35898  1.0000
  H   H17       1.0  0.72208  0.72332  0.37285  1.0000
  C   C33       1.0  0.53637  0.56568  0.37193  1.0000
  C   C34       1.0  0.52806  0.51523  0.36901  1.0000
  C   C35       1.0  0.47815  0.47199  0.36977  1.0000
  C   C36       1.0  0.43729  0.48154  0.37091  1.0000
  C   C37       1.0  0.44308  0.53034  0.37315  1.0000
  C   C38       1.0  0.49344  0.57253  0.37111  1.0000
  C   C39       1.0  0.57145  0.51074  0.35896  1.0000
  C   C40       1.0  0.50311  0.62254  0.36131  1.0000
  H   H18       1.0  0.56907  0.47734  0.34420  1.0000
  H   H19       1.0  0.64838  0.54429  0.34958  1.0000
  H   H20       1.0  0.55429  0.69736  0.34430  1.0000
  C   C41       1.0  0.65888  0.75484  0.37119  1.0000
  C   C42       1.0  0.46449  0.41986  0.37115  1.0000
  H   H21       1.0  0.69631  0.78152  0.36635  1.0000
  H   H22       1.0  0.42705  0.39317  0.36632  1.0000
  C   C43       1.0  0.54001  0.09099  0.37194  1.0000
  C   C44       1.0  0.54687  0.14077  0.37109  1.0000
  C   C45       1.0  0.50467  0.14894  0.37312  1.0000
  C   C46       1.0  0.45588  0.10595  0.37086  1.0000
  C   C47       1.0  0.44632  0.05553  0.36976  1.0000
  C   C48       1.0  0.48956  0.04885  0.36904  1.0000
  C   C49       1.0  0.59688  0.18110  0.36122  1.0000
  C   C50       1.0  0.48506  0.00096  0.35898  1.0000
  H   H23       1.0  0.42571  0.11179  0.37282  1.0000
  C   C51       1.0  0.58334  0.08371  0.37195  1.0000
  C   C52       1.0  0.63379  0.12585  0.36908  1.0000
  C   C53       1.0  0.67703  0.11917  0.36981  1.0000
  C   C54       1.0  0.66748  0.06875  0.37090  1.0000
  C   C55       1.0  0.61868  0.02576  0.37312  1.0000
  C   C56       1.0  0.57649  0.03393  0.37113  1.0000
  C   C57       1.0  0.63830  0.17374  0.35905  1.0000
  H   H24       1.0  0.69764  0.06290  0.37281  1.0000
  C   C58       1.0  0.52648  0.99360  0.36120  1.0000
  H   H25       1.0  0.67169  0.20474  0.34426  1.0000
  H   H26       1.0  0.60473  0.21711  0.34961  1.0000
  H   H27       1.0  0.51863  0.95761  0.34942  1.0000
  H   H28       1.0  0.45168  0.96997  0.34403  1.0000
  C   C59       1.0  0.61376  0.97698  0.37965  1.0000
  C   C60       1.0  0.72917  0.15763  0.37118  1.0000
  C   C61       1.0  0.50960  0.19772  0.37966  1.0000
  H   H29       1.0  0.57892  0.94701  0.39198  1.0000
  H   H30       1.0  0.75585  0.14687  0.36635  1.0000
  H   H31       1.0  0.54443  0.22769  0.39199  1.0000
  N   N11       1.0  0.68002  0.86308  0.36836  1.0000
  C   C62       1.0  0.68753  0.91088  0.36584  1.0000
  C   C63       1.0  0.64608  0.91854  0.37664  1.0000
  H   H32       1.0  0.72296  0.94060  0.35483  1.0000
  N   N12       1.0  0.65114  0.96536  0.37212  1.0000
  N   N13       1.0  0.90430  0.70570  0.36841  1.0000
  C   C64       1.0  0.86401  0.71321  0.36590  1.0000
  C   C65       1.0  0.81490  0.67177  0.37668  1.0000
  H   H33       1.0  0.86972  0.74864  0.35490  1.0000
  N   N14       1.0  0.77314  0.67683  0.37216  1.0000
  N   N15       1.0  0.44334  0.31162  0.36834  1.0000
  C   C66       1.0  0.43582  0.26382  0.36587  1.0000
  C   C67       1.0  0.47727  0.25616  0.37666  1.0000
  N   N16       1.0  0.47221  0.20933  0.37214  1.0000
  N   N17       1.0  0.83741  0.24473  0.36838  1.0000
  C   C68       1.0  0.88522  0.28502  0.36587  1.0000
  C   C69       1.0  0.89287  0.33413  0.37666  1.0000
  H   H34       1.0  0.91493  0.27931  0.35488  1.0000
  N   N18       1.0  0.93970  0.37589  0.37215  1.0000
  C   C70       1.0  0.00826  0.51912  0.37107  1.0000
  C   C71       1.0  0.00009  0.46875  0.37313  1.0000
  C   C72       1.0  0.96794  0.52880  0.36110  1.0000
  C   C73       1.0  0.97528  0.57758  0.35910  1.0000
  H   H35       1.0  0.94427  0.57996  0.34425  1.0000
  H   H36       1.0  0.93191  0.50065  0.34967  1.0000
  C   C74       1.0  0.99139  0.68456  0.37123  1.0000
  C   C75       1.0  0.95130  0.42489  0.37965  1.0000
  H   H37       1.0  0.00215  0.72200  0.36640  1.0000
  H   H38       1.0  0.92133  0.42976  0.39194  1.0000
  H   H39       1.0  0.47497  0.63040  0.34962  1.0000
  C   C76       1.0  0.72414  0.63944  0.37968  1.0000
  H   H40       1.0  0.71927  0.60460  0.39200  1.0000
  C   C77       1.0  0.63409  0.82112  0.38200  1.0000
  N   N19       1.0  0.60050  0.87641  0.39022  1.0000
  C   C78       1.0  0.59218  0.82842  0.39400  1.0000
  N   N20       1.0  0.54430  0.79091  0.40908  1.0000
  H   H41       1.0  0.53608  0.75614  0.41615  1.0000
  H   H42       1.0  0.51726  0.79848  0.41780  1.0000
  N   N21       1.0  0.62748  0.77376  0.38136  1.0000
  C   C79       1.0  0.90032  0.65977  0.38202  1.0000
  N   N22       1.0  0.81144  0.62618  0.39025  1.0000
  C   C80       1.0  0.85112  0.61786  0.39401  1.0000
  N   N23       1.0  0.84075  0.56998  0.40907  1.0000
  H   H43       1.0  0.86729  0.56175  0.41614  1.0000
  H   H44       1.0  0.80614  0.54294  0.41779  1.0000
  N   N24       1.0  0.94107  0.65316  0.38138  1.0000
  C   C81       1.0  0.48928  0.35358  0.38195  1.0000
  N   N25       1.0  0.52285  0.29828  0.39025  1.0000
  C   C82       1.0  0.53118  0.34628  0.39400  1.0000
  N   N26       1.0  0.57906  0.38378  0.40909  1.0000
  H   H45       1.0  0.58732  0.41858  0.41591  1.0000
  H   H46       1.0  0.60611  0.37622  0.41763  1.0000
  N   N27       1.0  0.49589  0.40095  0.38132  1.0000
  C   C83       1.0  0.79546  0.24871  0.38200  1.0000
  N   N28       1.0  0.85074  0.33759  0.39022  1.0000
  C   C84       1.0  0.80275  0.29791  0.39399  1.0000
  N   N29       1.0  0.76524  0.30828  0.40905  1.0000
  H   H47       1.0  0.73047  0.28173  0.41612  1.0000
  H   H48       1.0  0.77281  0.34289  0.41777  1.0000
  N   N30       1.0  0.74809  0.20795  0.38136  1.0000
