data_image0
_chemical_formula_structural       C3H2C2HC2O2C3NOCHNHC3NOCHNHC3HC4H2C2O2C3NOCHNHC3NOCHNHC3H2C2HC2O2C3NOCHNHC3NOCHNHC3HC4H2C2O2C3NOCHNHC3NOCHNHC3H2C2HC2O2C3NOCHNHC3NOCHNHC3HC4H2C2O2C3NOCHNHC3NOCHNHC3H2C2HC2O2C3NOCHNHC3NOCHNHC3HC4H2C2O2C3NOCHNHC3NOCHNH
_chemical_formula_sum              "C128 H56 O32 N32"
_cell_length_a       30.5886
_cell_length_b       30.5886
_cell_length_c       15.0645
_cell_angle_alpha    90
_cell_angle_beta     90
_cell_angle_gamma    90

_space_group_name_H-M_alt    "P 1"
_space_group_IT_number       1

loop_
  _space_group_symop_operation_xyz
  'x, y, z'

loop_
  _atom_site_type_symbol
  _atom_site_label
  _atom_site_symmetry_multiplicity
  _atom_site_fract_x
  _atom_site_fract_y
  _atom_site_fract_z
  _atom_site_occupancy
  C   C1        1.0  0.48931  0.43332  0.32823  1.0000
  C   C2        1.0  0.45722  0.40005  0.32826  1.0000
  C   C3        1.0  0.41315  0.41333  0.32569  1.0000
  H   H1        1.0  0.02133  0.42395  0.32740  1.0000
  H   H2        1.0  0.38954  0.38971  0.32457  1.0000
  C   C4        1.0  0.03798  0.08562  0.28788  1.0000
  C   C5        1.0  0.00446  0.05390  0.29303  1.0000
  H   H3        1.0  0.47613  0.06031  0.25947  1.0000
  C   C6        1.0  0.03202  0.12689  0.24740  1.0000
  C   C7        1.0  0.46668  0.35468  0.33203  1.0000
  O   O1        1.0  0.06866  0.14564  0.21330  1.0000
  O   O2        1.0  0.43269  0.32768  0.35228  1.0000
  C   C8        1.0  0.00943  0.29155  0.30088  1.0000
  C   C9        1.0  0.02240  0.27015  0.22188  1.0000
  C   C10       1.0  0.01836  0.22481  0.21275  1.0000
  N   N1        1.0  0.02714  0.21557  0.12820  1.0000
  O   O3        1.0  0.03340  0.28958  0.14364  1.0000
  C   C11       1.0  0.03725  0.25381  0.08974  1.0000
  H   H4        1.0  0.04342  0.25643  0.02333  1.0000
  N   N2        1.0  0.00480  0.33590  0.30383  1.0000
  H   H5        1.0  0.02216  0.35320  0.26255  1.0000
  C   C12       1.0  0.19725  0.00270  0.37676  1.0000
  C   C13       1.0  0.21819  0.99245  0.29564  1.0000
  C   C14       1.0  0.26322  0.99676  0.28526  1.0000
  N   N3        1.0  0.27223  0.98738  0.20082  1.0000
  O   O4        1.0  0.19846  0.98061  0.21809  1.0000
  C   C15       1.0  0.23375  0.97798  0.16277  1.0000
  H   H6        1.0  0.23100  0.96969  0.09734  1.0000
  N   N4        1.0  0.15283  0.99934  0.38120  1.0000
  H   H7        1.0  0.13925  0.98002  0.33735  1.0000
  C   C16       1.0  0.47852  0.47865  0.32888  1.0000
  C   C17       1.0  0.39990  0.45744  0.32498  1.0000
  C   C18       1.0  0.43320  0.48948  0.32805  1.0000
  H   H8        1.0  0.42386  0.02150  0.33012  1.0000
  C   C19       1.0  0.01163  0.01170  0.33029  1.0000
  C   C20       1.0  0.05348  0.00403  0.36874  1.0000
  C   C21       1.0  0.08531  0.03734  0.37596  1.0000
  C   C22       1.0  0.07755  0.07724  0.33233  1.0000
  H   H9        1.0  0.05952  0.47539  0.40150  1.0000
  H   H10       1.0  0.10134  0.10084  0.33303  1.0000
  C   C23       1.0  0.12641  0.03080  0.41670  1.0000
  C   C24       1.0  0.35454  0.46695  0.32074  1.0000
  O   O5        1.0  0.32767  0.43322  0.29818  1.0000
  O   O6        1.0  0.14507  0.06675  0.45367  1.0000
  C   C25       1.0  0.00274  0.19751  0.28200  1.0000
  C   C26       1.0  0.99211  0.21891  0.36240  1.0000
  C   C27       1.0  0.99659  0.26397  0.37179  1.0000
  N   N5        1.0  0.98664  0.27356  0.45568  1.0000
  O   O7        1.0  0.97969  0.19969  0.44009  1.0000
  C   C28       1.0  0.97686  0.23534  0.49444  1.0000
  H   H11       1.0  0.96807  0.23304  0.55967  1.0000
  N   N6        1.0  0.99928  0.15311  0.27826  1.0000
  H   H12       1.0  0.97944  0.13969  0.32126  1.0000
  C   C29       1.0  0.29127  0.00903  0.35581  1.0000
  C   C30       1.0  0.27036  0.02178  0.43552  1.0000
  C   C31       1.0  0.22506  0.01773  0.44574  1.0000
  N   N7        1.0  0.21644  0.02579  0.53086  1.0000
  O   O8        1.0  0.29031  0.03197  0.51367  1.0000
  C   C32       1.0  0.25493  0.03554  0.56864  1.0000
  H   H13       1.0  0.25801  0.04104  0.63520  1.0000
  N   N8        1.0  0.33564  0.00444  0.35185  1.0000
  H   H14       1.0  0.35295  0.02153  0.39358  1.0000
  C   C33       1.0  0.48931  0.93332  0.32823  1.0000
  C   C34       1.0  0.45722  0.90005  0.32826  1.0000
  C   C35       1.0  0.41315  0.91333  0.32569  1.0000
  H   H15       1.0  0.02133  0.92395  0.32740  1.0000
  H   H16       1.0  0.38954  0.88971  0.32457  1.0000
  C   C36       1.0  0.03798  0.58562  0.28788  1.0000
  C   C37       1.0  0.00446  0.55390  0.29303  1.0000
  H   H17       1.0  0.47613  0.56030  0.25947  1.0000
  C   C38       1.0  0.03202  0.62689  0.24740  1.0000
  C   C39       1.0  0.46668  0.85468  0.33203  1.0000
  O   O9        1.0  0.06866  0.64563  0.21330  1.0000
  O   O10       1.0  0.43269  0.82767  0.35228  1.0000
  C   C40       1.0  0.00943  0.79155  0.30088  1.0000
  C   C41       1.0  0.02240  0.77015  0.22188  1.0000
  C   C42       1.0  0.01836  0.72480  0.21275  1.0000
  N   N9        1.0  0.02714  0.71557  0.12820  1.0000
  O   O11       1.0  0.03340  0.78958  0.14364  1.0000
  C   C43       1.0  0.03725  0.75381  0.08974  1.0000
  H   H18       1.0  0.04342  0.75643  0.02333  1.0000
  N   N10       1.0  0.00480  0.83590  0.30383  1.0000
  H   H19       1.0  0.02216  0.85320  0.26255  1.0000
  C   C44       1.0  0.19725  0.50270  0.37676  1.0000
  C   C45       1.0  0.21819  0.49245  0.29564  1.0000
  C   C46       1.0  0.26322  0.49676  0.28526  1.0000
  N   N11       1.0  0.27223  0.48738  0.20082  1.0000
  O   O12       1.0  0.19846  0.48061  0.21809  1.0000
  C   C47       1.0  0.23375  0.47798  0.16277  1.0000
  H   H20       1.0  0.23100  0.46969  0.09734  1.0000
  N   N12       1.0  0.15283  0.49934  0.38120  1.0000
  H   H21       1.0  0.13925  0.48003  0.33735  1.0000
  C   C48       1.0  0.47852  0.97865  0.32888  1.0000
  C   C49       1.0  0.39990  0.95744  0.32498  1.0000
  C   C50       1.0  0.43320  0.98948  0.32805  1.0000
  H   H22       1.0  0.42386  0.52150  0.33012  1.0000
  C   C51       1.0  0.01163  0.51170  0.33029  1.0000
  C   C52       1.0  0.05348  0.50403  0.36874  1.0000
  C   C53       1.0  0.08531  0.53734  0.37596  1.0000
  C   C54       1.0  0.07755  0.57724  0.33233  1.0000
  H   H23       1.0  0.05952  0.97539  0.40150  1.0000
  H   H24       1.0  0.10134  0.60084  0.33303  1.0000
  C   C55       1.0  0.12641  0.53080  0.41670  1.0000
  C   C56       1.0  0.35454  0.96694  0.32074  1.0000
  O   O13       1.0  0.32767  0.93322  0.29818  1.0000
  O   O14       1.0  0.14507  0.56676  0.45367  1.0000
  C   C57       1.0  0.00274  0.69751  0.28200  1.0000
  C   C58       1.0  0.99211  0.71891  0.36240  1.0000
  C   C59       1.0  0.99659  0.76397  0.37179  1.0000
  N   N13       1.0  0.98664  0.77356  0.45568  1.0000
  O   O15       1.0  0.97969  0.69969  0.44009  1.0000
  C   C60       1.0  0.97686  0.73534  0.49444  1.0000
  H   H25       1.0  0.96807  0.73304  0.55967  1.0000
  N   N14       1.0  0.99928  0.65311  0.27826  1.0000
  H   H26       1.0  0.97944  0.63968  0.32126  1.0000
  C   C61       1.0  0.29127  0.50903  0.35581  1.0000
  C   C62       1.0  0.27036  0.52178  0.43552  1.0000
  C   C63       1.0  0.22506  0.51773  0.44574  1.0000
  N   N15       1.0  0.21644  0.52579  0.53086  1.0000
  O   O16       1.0  0.29031  0.53197  0.51367  1.0000
  C   C64       1.0  0.25493  0.53554  0.56864  1.0000
  H   H27       1.0  0.25801  0.54104  0.63520  1.0000
  N   N16       1.0  0.33564  0.50443  0.35185  1.0000
  H   H28       1.0  0.35295  0.52153  0.39358  1.0000
  C   C65       1.0  0.98932  0.43332  0.32823  1.0000
  C   C66       1.0  0.95722  0.40005  0.32826  1.0000
  C   C67       1.0  0.91314  0.41333  0.32569  1.0000
  H   H29       1.0  0.52134  0.42395  0.32740  1.0000
  H   H30       1.0  0.88953  0.38971  0.32457  1.0000
  C   C68       1.0  0.53798  0.08562  0.28788  1.0000
  C   C69       1.0  0.50446  0.05390  0.29303  1.0000
  H   H31       1.0  0.97613  0.06031  0.25947  1.0000
  C   C70       1.0  0.53202  0.12689  0.24740  1.0000
  C   C71       1.0  0.96668  0.35468  0.33203  1.0000
  O   O17       1.0  0.56865  0.14564  0.21330  1.0000
  O   O18       1.0  0.93269  0.32768  0.35228  1.0000
  C   C72       1.0  0.50943  0.29155  0.30088  1.0000
  C   C73       1.0  0.52240  0.27015  0.22188  1.0000
  C   C74       1.0  0.51836  0.22481  0.21275  1.0000
  N   N17       1.0  0.52714  0.21557  0.12820  1.0000
  O   O19       1.0  0.53340  0.28958  0.14364  1.0000
  C   C75       1.0  0.53725  0.25381  0.08974  1.0000
  H   H32       1.0  0.54342  0.25643  0.02333  1.0000
  N   N18       1.0  0.50480  0.33590  0.30383  1.0000
  H   H33       1.0  0.52216  0.35320  0.26255  1.0000
  C   C76       1.0  0.69725  0.00270  0.37676  1.0000
  C   C77       1.0  0.71819  0.99245  0.29564  1.0000
  C   C78       1.0  0.76322  0.99676  0.28526  1.0000
  N   N19       1.0  0.77223  0.98738  0.20082  1.0000
  O   O20       1.0  0.69846  0.98061  0.21809  1.0000
  C   C79       1.0  0.73375  0.97798  0.16277  1.0000
  H   H34       1.0  0.73100  0.96969  0.09734  1.0000
  N   N20       1.0  0.65283  0.99934  0.38120  1.0000
  H   H35       1.0  0.63925  0.98002  0.33735  1.0000
  C   C80       1.0  0.97852  0.47865  0.32888  1.0000
  C   C81       1.0  0.89990  0.45744  0.32498  1.0000
  C   C82       1.0  0.93320  0.48948  0.32805  1.0000
  H   H36       1.0  0.92386  0.02150  0.33012  1.0000
  C   C83       1.0  0.51163  0.01170  0.33029  1.0000
  C   C84       1.0  0.55348  0.00403  0.36874  1.0000
  C   C85       1.0  0.58530  0.03734  0.37596  1.0000
  C   C86       1.0  0.57754  0.07724  0.33233  1.0000
  H   H37       1.0  0.55952  0.47539  0.40150  1.0000
  H   H38       1.0  0.60134  0.10084  0.33303  1.0000
  C   C87       1.0  0.62641  0.03080  0.41670  1.0000
  C   C88       1.0  0.85454  0.46695  0.32074  1.0000
  O   O21       1.0  0.82767  0.43322  0.29818  1.0000
  O   O22       1.0  0.64507  0.06675  0.45367  1.0000
  C   C89       1.0  0.50274  0.19751  0.28200  1.0000
  C   C90       1.0  0.49211  0.21891  0.36240  1.0000
  C   C91       1.0  0.49659  0.26397  0.37179  1.0000
  N   N21       1.0  0.48664  0.27356  0.45568  1.0000
  O   O23       1.0  0.47969  0.19969  0.44009  1.0000
  C   C92       1.0  0.47686  0.23534  0.49444  1.0000
  H   H39       1.0  0.46807  0.23304  0.55967  1.0000
  N   N22       1.0  0.49928  0.15311  0.27826  1.0000
  H   H40       1.0  0.47944  0.13969  0.32126  1.0000
  C   C93       1.0  0.79127  0.00903  0.35581  1.0000
  C   C94       1.0  0.77036  0.02178  0.43552  1.0000
  C   C95       1.0  0.72505  0.01773  0.44574  1.0000
  N   N23       1.0  0.71644  0.02579  0.53086  1.0000
  O   O24       1.0  0.79031  0.03197  0.51367  1.0000
  C   C96       1.0  0.75493  0.03554  0.56864  1.0000
  H   H41       1.0  0.75801  0.04104  0.63520  1.0000
  N   N24       1.0  0.83564  0.00444  0.35185  1.0000
  H   H42       1.0  0.85295  0.02153  0.39358  1.0000
  C   C97       1.0  0.98932  0.93332  0.32823  1.0000
  C   C98       1.0  0.95722  0.90005  0.32826  1.0000
  C   C99       1.0  0.91314  0.91333  0.32569  1.0000
  H   H43       1.0  0.52134  0.92395  0.32740  1.0000
  H   H44       1.0  0.88953  0.88971  0.32457  1.0000
  C   C100      1.0  0.53798  0.58562  0.28788  1.0000
  C   C101      1.0  0.50446  0.55390  0.29303  1.0000
  H   H45       1.0  0.97613  0.56030  0.25947  1.0000
  C   C102      1.0  0.53202  0.62689  0.24740  1.0000
  C   C103      1.0  0.96668  0.85468  0.33203  1.0000
  O   O25       1.0  0.56865  0.64563  0.21330  1.0000
  O   O26       1.0  0.93269  0.82767  0.35228  1.0000
  C   C104      1.0  0.50943  0.79155  0.30088  1.0000
  C   C105      1.0  0.52240  0.77015  0.22188  1.0000
  C   C106      1.0  0.51836  0.72480  0.21275  1.0000
  N   N25       1.0  0.52714  0.71557  0.12820  1.0000
  O   O27       1.0  0.53340  0.78958  0.14364  1.0000
  C   C107      1.0  0.53725  0.75381  0.08974  1.0000
  H   H46       1.0  0.54342  0.75643  0.02333  1.0000
  N   N26       1.0  0.50480  0.83590  0.30383  1.0000
  H   H47       1.0  0.52216  0.85320  0.26255  1.0000
  C   C108      1.0  0.69725  0.50270  0.37676  1.0000
  C   C109      1.0  0.71819  0.49245  0.29564  1.0000
  C   C110      1.0  0.76322  0.49676  0.28526  1.0000
  N   N27       1.0  0.77223  0.48738  0.20082  1.0000
  O   O28       1.0  0.69846  0.48061  0.21809  1.0000
  C   C111      1.0  0.73375  0.47798  0.16277  1.0000
  H   H48       1.0  0.73100  0.46969  0.09734  1.0000
  N   N28       1.0  0.65283  0.49934  0.38120  1.0000
  H   H49       1.0  0.63925  0.48003  0.33735  1.0000
  C   C112      1.0  0.97852  0.97865  0.32888  1.0000
  C   C113      1.0  0.89990  0.95744  0.32498  1.0000
  C   C114      1.0  0.93320  0.98948  0.32805  1.0000
  H   H50       1.0  0.92386  0.52150  0.33012  1.0000
  C   C115      1.0  0.51163  0.51170  0.33029  1.0000
  C   C116      1.0  0.55348  0.50403  0.36874  1.0000
  C   C117      1.0  0.58530  0.53734  0.37596  1.0000
  C   C118      1.0  0.57754  0.57724  0.33233  1.0000
  H   H51       1.0  0.55952  0.97539  0.40150  1.0000
  H   H52       1.0  0.60134  0.60084  0.33303  1.0000
  C   C119      1.0  0.62641  0.53080  0.41670  1.0000
  C   C120      1.0  0.85454  0.96694  0.32074  1.0000
  O   O29       1.0  0.82767  0.93322  0.29818  1.0000
  O   O30       1.0  0.64507  0.56676  0.45367  1.0000
  C   C121      1.0  0.50274  0.69751  0.28200  1.0000
  C   C122      1.0  0.49211  0.71891  0.36240  1.0000
  C   C123      1.0  0.49659  0.76397  0.37179  1.0000
  N   N29       1.0  0.48664  0.77356  0.45568  1.0000
  O   O31       1.0  0.47969  0.69969  0.44009  1.0000
  C   C124      1.0  0.47686  0.73534  0.49444  1.0000
  H   H53       1.0  0.46807  0.73304  0.55967  1.0000
  N   N30       1.0  0.49928  0.65311  0.27826  1.0000
  H   H54       1.0  0.47944  0.63968  0.32126  1.0000
  C   C125      1.0  0.79127  0.50903  0.35581  1.0000
  C   C126      1.0  0.77036  0.52178  0.43552  1.0000
  C   C127      1.0  0.72505  0.51773  0.44574  1.0000
  N   N31       1.0  0.71644  0.52579  0.53086  1.0000
  O   O32       1.0  0.79031  0.53197  0.51367  1.0000
  C   C128      1.0  0.75493  0.53554  0.56864  1.0000
  H   H55       1.0  0.75801  0.54104  0.63520  1.0000
  N   N32       1.0  0.83564  0.50443  0.35185  1.0000
  H   H56       1.0  0.85295  0.52153  0.39358  1.0000
