data_image0
_chemical_formula_structural       C21HNO2NHC3HNO2NHC3HNO2NHC3HNO2NHC3HNO2NHC3HNO2NHC3H2NHC3H2NHC3H2NHC3H2NHC3H2NHC3H2NHC3HNO2NHC3HNO2NHC3HNO2NHC3HNO2NHC3HNO2NHC3HNO2NHCN2CNC2O3CN2CNC2O3CN2CNC2O3CN2CNC2O3CN2CNC2O3CN2CNC2O3NCNCNC3O3NCNCNC3O3NCNCNC3O3NCNCNC3O3NCNCNC3O3NCNCNC3O3C3H2NHC3H2NHC3H2NHC3H2NHC3H2NHC3H2NHC3HNO2NHC3HNO2NHC3HNO2NHC3HNO2NHC3HNO2NHC3HNO2NHC3H2NHC3H2NHC3H2NHC3H2NHC3H2NHC3H2NH
_chemical_formula_sum              "C180 H90 N90 O72"
_cell_length_a       58.3311
_cell_length_b       58.3312
_cell_length_c       15.0337
_cell_angle_alpha    90
_cell_angle_beta     90
_cell_angle_gamma    120

_space_group_name_H-M_alt    "P 1"
_space_group_IT_number       1

loop_
  _space_group_symop_operation_xyz
  'x, y, z'

loop_
  _atom_site_type_symbol
  _atom_site_label
  _atom_site_symmetry_multiplicity
  _atom_site_fract_x
  _atom_site_fract_y
  _atom_site_fract_z
  _atom_site_occupancy
  C   C1        1.0  0.10276  0.44583  0.27703  1.0000
  C   C2        1.0  0.17188  0.46189  0.29482  1.0000
  C   C3        1.0  0.57030  0.67526  0.27504  1.0000
  C   C4        1.0  0.55423  0.72825  0.29605  1.0000
  C   C5        1.0  0.34075  0.91306  0.27693  1.0000
  C   C6        1.0  0.28765  0.84397  0.29527  1.0000
  C   C7        1.0  0.90635  0.57704  0.27499  1.0000
  C   C8        1.0  0.83731  0.56102  0.29598  1.0000
  C   C9        1.0  0.43910  0.34765  0.27700  1.0000
  C   C10       1.0  0.45511  0.29455  0.29474  1.0000
  C   C11       1.0  0.66837  0.10947  0.27510  1.0000
  C   C12       1.0  0.72135  0.17855  0.29552  1.0000
  C   C13       1.0  0.48401  0.13689  0.39274  1.0000
  C   C14       1.0  0.65064  0.53195  0.39294  1.0000
  C   C15       1.0  0.87893  0.36528  0.39266  1.0000
  C   C16       1.0  0.52507  0.88583  0.39286  1.0000
  C   C17       1.0  0.35851  0.49089  0.39265  1.0000
  C   C18       1.0  0.12999  0.65741  0.39294  1.0000
  C   C19       1.0  0.23514  0.44325  0.25165  1.0000
  C   C20       1.0  0.21130  0.44346  0.23725  1.0000
  C   C21       1.0  0.19248  0.43538  0.30707  1.0000
  H   H1        1.0  0.24905  0.44966  0.20219  1.0000
  N   N1        1.0  0.20583  0.45157  0.15503  1.0000
  O   O1        1.0  0.20479  0.43671  0.09277  1.0000
  O   O2        1.0  0.22307  0.47494  0.13613  1.0000
  N   N2        1.0  0.17054  0.43792  0.30014  1.0000
  H   H2        1.0  0.15347  0.42204  0.31018  1.0000
  C   C22       1.0  0.57285  0.81015  0.25370  1.0000
  C   C23       1.0  0.57267  0.78612  0.23907  1.0000
  C   C24       1.0  0.58072  0.77533  0.30881  1.0000
  H   H3        1.0  0.56646  0.81768  0.20429  1.0000
  N   N3        1.0  0.56462  0.77262  0.15670  1.0000
  O   O3        1.0  0.57951  0.78651  0.09460  1.0000
  O   O4        1.0  0.54126  0.76648  0.13772  1.0000
  N   N4        1.0  0.57821  0.75087  0.30156  1.0000
  H   H4        1.0  0.59407  0.74965  0.31154  1.0000
  C   C25       1.0  0.20569  0.78077  0.25273  1.0000
  C   C26       1.0  0.22976  0.80459  0.23816  1.0000
  C   C27       1.0  0.24056  0.82343  0.30790  1.0000
  H   H5        1.0  0.19816  0.76684  0.20334  1.0000
  N   N5        1.0  0.24329  0.81001  0.15586  1.0000
  O   O5        1.0  0.22945  0.81105  0.09368  1.0000
  O   O6        1.0  0.24938  0.79274  0.13696  1.0000
  N   N6        1.0  0.26505  0.84535  0.30080  1.0000
  H   H6        1.0  0.26627  0.86243  0.31081  1.0000
  C   C28       1.0  0.77408  0.57971  0.25367  1.0000
  C   C29       1.0  0.79792  0.57951  0.23904  1.0000
  C   C30       1.0  0.81676  0.58754  0.30879  1.0000
  H   H7        1.0  0.76016  0.57334  0.20427  1.0000
  N   N7        1.0  0.80336  0.57146  0.15666  1.0000
  O   O7        1.0  0.80437  0.58635  0.09457  1.0000
  O   O8        1.0  0.78612  0.54810  0.13766  1.0000
  N   N8        1.0  0.83869  0.58500  0.30152  1.0000
  H   H8        1.0  0.85577  0.60085  0.31152  1.0000
  C   C31       1.0  0.43639  0.21262  0.25161  1.0000
  C   C32       1.0  0.43663  0.23669  0.23721  1.0000
  C   C33       1.0  0.42856  0.24744  0.30704  1.0000
  H   H9        1.0  0.44279  0.20511  0.20215  1.0000
  N   N9        1.0  0.44474  0.25026  0.15498  1.0000
  O   O9        1.0  0.42987  0.23645  0.09273  1.0000
  O   O10       1.0  0.46810  0.25637  0.13607  1.0000
  N   N10       1.0  0.43113  0.27193  0.30010  1.0000
  H   H10       1.0  0.41526  0.27314  0.31016  1.0000
  C   C34       1.0  0.80322  0.24184  0.25259  1.0000
  C   C35       1.0  0.77920  0.21797  0.23812  1.0000
  C   C36       1.0  0.76844  0.19916  0.30796  1.0000
  H   H11       1.0  0.81073  0.25573  0.20312  1.0000
  N   N11       1.0  0.76565  0.21248  0.15583  1.0000
  O   O11       1.0  0.77951  0.21147  0.09367  1.0000
  O   O12       1.0  0.75949  0.22969  0.13683  1.0000
  N   N12       1.0  0.74399  0.17721  0.30086  1.0000
  H   H12       1.0  0.74277  0.16013  0.31090  1.0000
  C   C37       1.0  0.15422  0.61062  0.35085  1.0000
  C   C38       1.0  0.15873  0.57957  0.25291  1.0000
  C   C39       1.0  0.15867  0.60340  0.26566  1.0000
  H   H13       1.0  0.16141  0.57450  0.19023  1.0000
  H   H14       1.0  0.16103  0.61509  0.21177  1.0000
  N   N13       1.0  0.15327  0.63345  0.36116  1.0000
  H   H15       1.0  0.16638  0.64887  0.32814  1.0000
  C   C40       1.0  0.40539  0.56189  0.35132  1.0000
  C   C41       1.0  0.43676  0.59729  0.25357  1.0000
  C   C42       1.0  0.41285  0.57346  0.26606  1.0000
  H   H16       1.0  0.44199  0.60499  0.19087  1.0000
  H   H17       1.0  0.40127  0.56410  0.21198  1.0000
  N   N14       1.0  0.38249  0.53817  0.36152  1.0000
  H   H18       1.0  0.36719  0.53591  0.32789  1.0000
  C   C43       1.0  0.45404  0.86158  0.35065  1.0000
  C   C44       1.0  0.41846  0.85701  0.25275  1.0000
  C   C45       1.0  0.44236  0.85709  0.26549  1.0000
  H   H19       1.0  0.41069  0.85431  0.19008  1.0000
  H   H20       1.0  0.45168  0.85470  0.21162  1.0000
  N   N15       1.0  0.47783  0.86254  0.36098  1.0000
  H   H21       1.0  0.48014  0.84942  0.32805  1.0000
  C   C46       1.0  0.85477  0.41214  0.35126  1.0000
  C   C47       1.0  0.85069  0.44347  0.25350  1.0000
  C   C48       1.0  0.85062  0.41956  0.26602  1.0000
  H   H22       1.0  0.84820  0.44868  0.19079  1.0000
  H   H23       1.0  0.84837  0.40797  0.21196  1.0000
  N   N16       1.0  0.85559  0.38923  0.36151  1.0000
  H   H24       1.0  0.84254  0.37392  0.32798  1.0000
  C   C49       1.0  0.60388  0.46092  0.35079  1.0000
  C   C50       1.0  0.57286  0.42535  0.25283  1.0000
  C   C51       1.0  0.59669  0.44925  0.26562  1.0000
  H   H25       1.0  0.56781  0.41759  0.19016  1.0000
  H   H26       1.0  0.60840  0.45857  0.21176  1.0000
  N   N17       1.0  0.62670  0.48470  0.36114  1.0000
  H   H27       1.0  0.64214  0.48701  0.32824  1.0000
  C   C52       1.0  0.55502  0.16104  0.35146  1.0000
  C   C53       1.0  0.59041  0.16506  0.25367  1.0000
  C   C54       1.0  0.56658  0.16514  0.26619  1.0000
  H   H28       1.0  0.59810  0.16753  0.19095  1.0000
  H   H29       1.0  0.55722  0.16736  0.21212  1.0000
  N   N18       1.0  0.53130  0.16022  0.36169  1.0000
  H   H30       1.0  0.52905  0.17326  0.32809  1.0000
  C   C55       1.0  0.98269  0.38107  0.27617  1.0000
  C   C56       1.0  0.00834  0.39467  0.23840  1.0000
  C   C57       1.0  0.03057  0.40772  0.29526  1.0000
  H   H31       1.0  0.96666  0.37278  0.23463  1.0000
  N   N19       1.0  0.01236  0.39606  0.14526  1.0000
  O   O13       1.0  0.00125  0.40711  0.10727  1.0000
  O   O14       1.0  0.00360  0.37340  0.11229  1.0000
  N   N20       1.0  0.05509  0.42440  0.26140  1.0000
  H   H32       1.0  0.05698  0.43978  0.22929  1.0000
  C   C58       1.0  0.63511  0.62008  0.27432  1.0000
  C   C59       1.0  0.62161  0.63217  0.23607  1.0000
  C   C60       1.0  0.60826  0.64112  0.29246  1.0000
  H   H33       1.0  0.64364  0.61251  0.23306  1.0000
  N   N21       1.0  0.62062  0.63509  0.14292  1.0000
  O   O15       1.0  0.60981  0.61304  0.10417  1.0000
  O   O16       1.0  0.64342  0.64914  0.11113  1.0000
  N   N22       1.0  0.59171  0.64904  0.25794  1.0000
  H   H34       1.0  0.57614  0.63540  0.22704  1.0000
  C   C61       1.0  0.39607  0.03313  0.27614  1.0000
  C   C62       1.0  0.38405  0.00749  0.23833  1.0000
  C   C63       1.0  0.37487  0.98525  0.29517  1.0000
  H   H35       1.0  0.40381  0.04917  0.23462  1.0000
  N   N23       1.0  0.38141  0.00347  0.14519  1.0000
  O   O17       1.0  0.40357  0.01460  0.10719  1.0000
  O   O18       1.0  0.36750  0.01222  0.11226  1.0000
  N   N24       1.0  0.36702  0.96073  0.26129  1.0000
  H   H36       1.0  0.38052  0.95883  0.22924  1.0000
  C   C64       1.0  0.02633  0.64186  0.27446  1.0000
  C   C65       1.0  0.00075  0.62835  0.23618  1.0000
  C   C66       1.0  0.97844  0.61497  0.29254  1.0000
  H   H37       1.0  0.04243  0.65040  0.23322  1.0000
  N   N25       1.0  0.99685  0.62736  0.14303  1.0000
  O   O19       1.0  0.00811  0.61658  0.10427  1.0000
  O   O20       1.0  0.00558  0.65017  0.11127  1.0000
  N   N26       1.0  0.95399  0.59842  0.25800  1.0000
  H   H38       1.0  0.95205  0.58284  0.22717  1.0000
  C   C67       1.0  0.37432  0.40293  0.27633  1.0000
  C   C68       1.0  0.38794  0.39091  0.23853  1.0000
  C   C69       1.0  0.40100  0.38174  0.29538  1.0000
  H   H39       1.0  0.36602  0.41067  0.23480  1.0000
  N   N27       1.0  0.38933  0.38828  0.14539  1.0000
  O   O21       1.0  0.40036  0.41044  0.10741  1.0000
  O   O22       1.0  0.36667  0.37437  0.11243  1.0000
  N   N28       1.0  0.41769  0.37391  0.26150  1.0000
  H   H40       1.0  0.43307  0.38741  0.22943  1.0000
  C   C70       1.0  0.61322  0.98948  0.27450  1.0000
  C   C71       1.0  0.62530  0.01507  0.23626  1.0000
  C   C72       1.0  0.63425  0.03737  0.29265  1.0000
  H   H41       1.0  0.60565  0.97339  0.23323  1.0000
  N   N29       1.0  0.62821  0.01898  0.14311  1.0000
  O   O23       1.0  0.60616  0.00775  0.10437  1.0000
  O   O24       1.0  0.64227  0.01024  0.11130  1.0000
  N   N30       1.0  0.64215  0.06183  0.25815  1.0000
  H   H42       1.0  0.62851  0.06376  0.22722  1.0000
  C   C73       1.0  0.13059  0.49253  0.27516  1.0000
  N   N31       1.0  0.10618  0.47062  0.27217  1.0000
  N   N32       1.0  0.12451  0.44326  0.28599  1.0000
  C   C74       1.0  0.14927  0.46468  0.28811  1.0000
  N   N33       1.0  0.15190  0.48916  0.28341  1.0000
  C   C75       1.0  0.07720  0.42350  0.28382  1.0000
  C   C76       1.0  0.13328  0.51797  0.27473  1.0000
  O   O25       1.0  0.19577  0.48443  0.29565  1.0000
  O   O26       1.0  0.11235  0.51994  0.24550  1.0000
  O   O27       1.0  0.07485  0.40149  0.32292  1.0000
  C   C77       1.0  0.52360  0.65636  0.27474  1.0000
  N   N34       1.0  0.54551  0.65389  0.27049  1.0000
  N   N35       1.0  0.57287  0.69955  0.28501  1.0000
  C   C78       1.0  0.55144  0.70287  0.28843  1.0000
  N   N36       1.0  0.52696  0.68102  0.28395  1.0000
  C   C79       1.0  0.59268  0.67207  0.28058  1.0000
  C   C80       1.0  0.49815  0.63360  0.27450  1.0000
  O   O28       1.0  0.53169  0.72959  0.29723  1.0000
  O   O29       1.0  0.49615  0.61075  0.24454  1.0000
  O   O30       1.0  0.61480  0.69173  0.31912  1.0000
  C   C81       1.0  0.35958  0.88520  0.27502  1.0000
  N   N37       1.0  0.36210  0.90962  0.27194  1.0000
  N   N38       1.0  0.31643  0.89133  0.28610  1.0000
  C   C82       1.0  0.31306  0.86656  0.28831  1.0000
  N   N39       1.0  0.33489  0.86390  0.28348  1.0000
  C   C83       1.0  0.34399  0.93863  0.28366  1.0000
  C   C84       1.0  0.38232  0.88249  0.27447  1.0000
  O   O31       1.0  0.28628  0.82007  0.29614  1.0000
  O   O32       1.0  0.40522  0.90340  0.24510  1.0000
  O   O33       1.0  0.32435  0.94100  0.32272  1.0000
  C   C85       1.0  0.87852  0.53034  0.27464  1.0000
  N   N40       1.0  0.90292  0.55224  0.27041  1.0000
  N   N41       1.0  0.88464  0.57962  0.28495  1.0000
  C   C86       1.0  0.85989  0.55820  0.28835  1.0000
  N   N42       1.0  0.85724  0.53372  0.28385  1.0000
  C   C87       1.0  0.93193  0.59941  0.28055  1.0000
  C   C88       1.0  0.87582  0.50488  0.27437  1.0000
  O   O34       1.0  0.81342  0.53848  0.29713  1.0000
  O   O35       1.0  0.89667  0.50287  0.24442  1.0000
  O   O36       1.0  0.93438  0.62154  0.31902  1.0000
  C   C89       1.0  0.48579  0.36649  0.27506  1.0000
  N   N43       1.0  0.46389  0.36900  0.27211  1.0000
  N   N44       1.0  0.43651  0.32332  0.28594  1.0000
  C   C90       1.0  0.45792  0.31996  0.28803  1.0000
  N   N45       1.0  0.48241  0.34179  0.28330  1.0000
  C   C91       1.0  0.41677  0.35088  0.28382  1.0000
  C   C92       1.0  0.51124  0.38923  0.27461  1.0000
  O   O37       1.0  0.47764  0.29319  0.29554  1.0000
  O   O38       1.0  0.51323  0.41214  0.24540  1.0000
  O   O39       1.0  0.39475  0.33122  0.32286  1.0000
  C   C93       1.0  0.64945  0.13726  0.27479  1.0000
  N   N46       1.0  0.64699  0.11288  0.27065  1.0000
  N   N47       1.0  0.69266  0.13120  0.28485  1.0000
  C   C94       1.0  0.69597  0.15595  0.28814  1.0000
  N   N48       1.0  0.67412  0.15857  0.28377  1.0000
  C   C95       1.0  0.66518  0.08390  0.28074  1.0000
  C   C96       1.0  0.62669  0.13995  0.27463  1.0000
  O   O40       1.0  0.72269  0.20243  0.29663  1.0000
  O   O41       1.0  0.60383  0.11908  0.24483  1.0000
  O   O42       1.0  0.68486  0.08147  0.31926  1.0000
  N   N49       1.0  0.46189  0.11267  0.39785  1.0000
  C   C97       1.0  0.43724  0.10934  0.38808  1.0000
  N   N50       1.0  0.43504  0.13101  0.37131  1.0000
  C   C98       1.0  0.45664  0.15562  0.36685  1.0000
  N   N51       1.0  0.48096  0.15811  0.37622  1.0000
  C   C99       1.0  0.41489  0.08374  0.38123  1.0000
  C   C100      1.0  0.45419  0.17792  0.34687  1.0000
  C   C101      1.0  0.50933  0.13928  0.39763  1.0000
  O   O43       1.0  0.47674  0.20069  0.32685  1.0000
  O   O44       1.0  0.51050  0.11802  0.42814  1.0000
  O   O45       1.0  0.39309  0.08132  0.34032  1.0000
  N   N52       1.0  0.64851  0.55406  0.39754  1.0000
  C   C102      1.0  0.66983  0.57872  0.38807  1.0000
  N   N53       1.0  0.69376  0.58094  0.37212  1.0000
  C   C103      1.0  0.69679  0.55935  0.36821  1.0000
  N   N54       1.0  0.67495  0.53502  0.37724  1.0000
  C   C104      1.0  0.66655  0.60104  0.38063  1.0000
  C   C105      1.0  0.72158  0.56181  0.34888  1.0000
  C   C106      1.0  0.62771  0.50662  0.39748  1.0000
  O   O46       1.0  0.72185  0.53927  0.32901  1.0000
  O   O47       1.0  0.60521  0.50547  0.42703  1.0000
  O   O48       1.0  0.68602  0.62285  0.34008  1.0000
  N   N55       1.0  0.90315  0.36739  0.39772  1.0000
  C   C107      1.0  0.90648  0.34606  0.38815  1.0000
  N   N56       1.0  0.88479  0.32217  0.37164  1.0000
  C   C108      1.0  0.86018  0.31916  0.36726  1.0000
  N   N57       1.0  0.85770  0.34101  0.37642  1.0000
  C   C109      1.0  0.93206  0.34929  0.38125  1.0000
  C   C110      1.0  0.83787  0.29439  0.34756  1.0000
  C   C111      1.0  0.87655  0.38822  0.39739  1.0000
  O   O49       1.0  0.81510  0.29414  0.32741  1.0000
  O   O50       1.0  0.89782  0.41066  0.42777  1.0000
  O   O51       1.0  0.93446  0.32989  0.34038  1.0000
  N   N58       1.0  0.54719  0.91007  0.39753  1.0000
  C   C112      1.0  0.57185  0.91340  0.38812  1.0000
  N   N59       1.0  0.57406  0.89169  0.37215  1.0000
  C   C113      1.0  0.55247  0.86707  0.36816  1.0000
  N   N60       1.0  0.52814  0.86458  0.37714  1.0000
  C   C114      1.0  0.59418  0.93900  0.38077  1.0000
  C   C115      1.0  0.55494  0.84474  0.34883  1.0000
  C   C116      1.0  0.49974  0.88343  0.39735  1.0000
  O   O52       1.0  0.53240  0.82194  0.32892  1.0000
  O   O53       1.0  0.49860  0.90478  0.42694  1.0000
  O   O54       1.0  0.61599  0.94134  0.34024  1.0000
  N   N61       1.0  0.36061  0.46876  0.39785  1.0000
  C   C117      1.0  0.33929  0.44411  0.38814  1.0000
  N   N62       1.0  0.31541  0.44191  0.37135  1.0000
  C   C118      1.0  0.31242  0.46352  0.36681  1.0000
  N   N63       1.0  0.33425  0.48784  0.37612  1.0000
  C   C119      1.0  0.34252  0.42175  0.38137  1.0000
  C   C120      1.0  0.28766  0.46106  0.34683  1.0000
  C   C121      1.0  0.38145  0.51620  0.39750  1.0000
  O   O55       1.0  0.28743  0.48361  0.32677  1.0000
  O   O56       1.0  0.40387  0.51736  0.42805  1.0000
  O   O57       1.0  0.32313  0.39995  0.34049  1.0000
  N   N64       1.0  0.10575  0.65528  0.39767  1.0000
  C   C122      1.0  0.10240  0.67660  0.38807  1.0000
  N   N65       1.0  0.12410  0.70051  0.37183  1.0000
  C   C123      1.0  0.14872  0.70353  0.36776  1.0000
  N   N66       1.0  0.15122  0.68170  0.37695  1.0000
  C   C124      1.0  0.07680  0.67332  0.38075  1.0000
  C   C125      1.0  0.17105  0.72831  0.34816  1.0000
  C   C126      1.0  0.13239  0.63448  0.39759  1.0000
  O   O58       1.0  0.19384  0.72855  0.32838  1.0000
  O   O59       1.0  0.11105  0.61200  0.42732  1.0000
  O   O60       1.0  0.07444  0.69278  0.34020  1.0000
  C   C127      1.0  0.24044  0.43517  0.33394  1.0000
  C   C128      1.0  0.19692  0.42548  0.38700  1.0000
  C   C129      1.0  0.22070  0.42534  0.40027  1.0000
  H   H43       1.0  0.18353  0.41974  0.43788  1.0000
  H   H44       1.0  0.22415  0.41944  0.46043  1.0000
  N   N67       1.0  0.26452  0.43750  0.35032  1.0000
  H   H45       1.0  0.26453  0.42225  0.37676  1.0000
  C   C130      1.0  0.58087  0.82345  0.33614  1.0000
  C   C131      1.0  0.59057  0.78960  0.38891  1.0000
  C   C132      1.0  0.59068  0.81349  0.40240  1.0000
  H   H46       1.0  0.59629  0.78191  0.43971  1.0000
  H   H47       1.0  0.59652  0.82279  0.46266  1.0000
  N   N68       1.0  0.57849  0.84516  0.35268  1.0000
  H   H48       1.0  0.59374  0.86047  0.37897  1.0000
  C   C133      1.0  0.19236  0.77552  0.33509  1.0000
  C   C134      1.0  0.22626  0.81904  0.38792  1.0000
  C   C135      1.0  0.20233  0.79529  0.40135  1.0000
  H   H49       1.0  0.23395  0.83245  0.43873  1.0000
  H   H50       1.0  0.19302  0.79186  0.46156  1.0000
  N   N69       1.0  0.17063  0.75145  0.35165  1.0000
  H   H51       1.0  0.15532  0.75142  0.37785  1.0000
  C   C136      1.0  0.76880  0.58773  0.33612  1.0000
  C   C137      1.0  0.81234  0.59739  0.38889  1.0000
  C   C138      1.0  0.78856  0.59752  0.40239  1.0000
  H   H52       1.0  0.82575  0.60309  0.43971  1.0000
  H   H53       1.0  0.78512  0.60337  0.46265  1.0000
  N   N70       1.0  0.74472  0.58537  0.35267  1.0000
  H   H54       1.0  0.74466  0.60062  0.37894  1.0000
  C   C139      1.0  0.42830  0.19925  0.33390  1.0000
  C   C140      1.0  0.41866  0.23311  0.38698  1.0000
  C   C141      1.0  0.41849  0.20918  0.40025  1.0000
  H   H55       1.0  0.41293  0.24077  0.43786  1.0000
  H   H56       1.0  0.41260  0.19984  0.46042  1.0000
  N   N71       1.0  0.43063  0.17750  0.35030  1.0000
  H   H57       1.0  0.41537  0.16223  0.37672  1.0000
  C   C142      1.0  0.81656  0.24716  0.33496  1.0000
  C   C143      1.0  0.78275  0.20362  0.38798  1.0000
  C   C144      1.0  0.80664  0.22742  0.40132  1.0000
  H   H58       1.0  0.77509  0.19023  0.43885  1.0000
  H   H59       1.0  0.81597  0.23089  0.46153  1.0000
  N   N72       1.0  0.83829  0.27125  0.35135  1.0000
  H   H60       1.0  0.85357  0.27129  0.37786  1.0000
  C   C145      1.0  0.15109  0.59399  0.42372  1.0000
  C   C146      1.0  0.15159  0.57015  0.41219  1.0000
  C   C147      1.0  0.15505  0.56274  0.32556  1.0000
  H   H61       1.0  0.14839  0.59925  0.48611  1.0000
  N   N73       1.0  0.14781  0.55304  0.48438  1.0000
  O   O61       1.0  0.16540  0.56442  0.54262  1.0000
  O   O62       1.0  0.12557  0.54483  0.52007  1.0000
  N   N74       1.0  0.15465  0.53945  0.31084  1.0000
  H   H62       1.0  0.16755  0.53681  0.34374  1.0000
  C   C148      1.0  0.42186  0.57542  0.42446  1.0000
  C   C149      1.0  0.44578  0.59971  0.41317  1.0000
  C   C150      1.0  0.45344  0.61048  0.32650  1.0000
  H   H63       1.0  0.41643  0.56754  0.48687  1.0000
  N   N75       1.0  0.46273  0.61307  0.48570  1.0000
  O   O63       1.0  0.45125  0.61939  0.54319  1.0000
  O   O64       1.0  0.47077  0.59900  0.52223  1.0000
  N   N76       1.0  0.47678  0.63336  0.31215  1.0000
  H   H64       1.0  0.47956  0.64888  0.34549  1.0000
  C   C151      1.0  0.44057  0.86475  0.42351  1.0000
  C   C152      1.0  0.41622  0.86424  0.41198  1.0000
  C   C153      1.0  0.40533  0.86074  0.32537  1.0000
  H   H65       1.0  0.44853  0.86747  0.48588  1.0000
  N   N77       1.0  0.40291  0.86806  0.48415  1.0000
  O   O65       1.0  0.39672  0.85050  0.54248  1.0000
  O   O66       1.0  0.41695  0.89032  0.51971  1.0000
  N   N78       1.0  0.38244  0.86113  0.31065  1.0000
  H   H66       1.0  0.36691  0.84825  0.34364  1.0000
  C   C154      1.0  0.85774  0.42863  0.42437  1.0000
  C   C155      1.0  0.85736  0.45255  0.41305  1.0000
  C   C156      1.0  0.85422  0.46018  0.32639  1.0000
  H   H67       1.0  0.86022  0.42322  0.48679  1.0000
  N   N79       1.0  0.86099  0.46951  0.48554  1.0000
  O   O67       1.0  0.84321  0.45805  0.54314  1.0000
  O   O68       1.0  0.88311  0.47757  0.52196  1.0000
  N   N80       1.0  0.85468  0.48352  0.31201  1.0000
  H   H68       1.0  0.84194  0.48630  0.34534  1.0000
  C   C157      1.0  0.58723  0.44744  0.42363  1.0000
  C   C158      1.0  0.56338  0.42309  0.41207  1.0000
  C   C159      1.0  0.55601  0.41222  0.32544  1.0000
  H   H69       1.0  0.59246  0.45539  0.48602  1.0000
  N   N81       1.0  0.54625  0.40977  0.48421  1.0000
  O   O69       1.0  0.55761  0.40357  0.54254  1.0000
  O   O70       1.0  0.53803  0.42381  0.51979  1.0000
  N   N82       1.0  0.53272  0.38932  0.31068  1.0000
  H   H70       1.0  0.53007  0.37378  0.34357  1.0000
  C   C160      1.0  0.56856  0.15810  0.42459  1.0000
  C   C161      1.0  0.59285  0.15846  0.41327  1.0000
  C   C162      1.0  0.60360  0.16156  0.32659  1.0000
  H   H71       1.0  0.56068  0.15565  0.48701  1.0000
  N   N83       1.0  0.60620  0.15487  0.48577  1.0000
  O   O71       1.0  0.61254  0.17268  0.54327  1.0000
  O   O72       1.0  0.59215  0.13277  0.52231  1.0000
  N   N84       1.0  0.62648  0.16110  0.31219  1.0000
  H   H72       1.0  0.64201  0.17386  0.34543  1.0000
  C   C163      1.0  0.97880  0.38093  0.36910  1.0000
  C   C164      1.0  0.02675  0.40725  0.38827  1.0000
  C   C165      1.0  0.00114  0.39435  0.42457  1.0000
  H   H73       1.0  0.04248  0.41792  0.42968  1.0000
  H   H74       1.0  0.99883  0.39556  0.49155  1.0000
  N   N85       1.0  0.95415  0.37236  0.40357  1.0000
  H   H75       1.0  0.95210  0.38517  0.43940  1.0000
  C   C166      1.0  0.63485  0.61605  0.36720  1.0000
  C   C167      1.0  0.60829  0.63746  0.38543  1.0000
  C   C168      1.0  0.62111  0.62474  0.42216  1.0000
  H   H76       1.0  0.59740  0.64237  0.42641  1.0000
  H   H77       1.0  0.61961  0.62102  0.48904  1.0000
  N   N86       1.0  0.64337  0.59996  0.40192  1.0000
  H   H78       1.0  0.63051  0.58510  0.43768  1.0000
  C   C169      1.0  0.39983  0.03702  0.36908  1.0000
  C   C170      1.0  0.37822  0.98906  0.38818  1.0000
  C   C171      1.0  0.39091  0.01466  0.42451  1.0000
  H   H79       1.0  0.37316  0.97332  0.42958  1.0000
  H   H80       1.0  0.39442  0.01697  0.49150  1.0000
  N   N87       1.0  0.41588  0.06166  0.40358  1.0000
  H   H81       1.0  0.43074  0.06372  0.43943  1.0000
  C   C172      1.0  0.03010  0.64160  0.36735  1.0000
  C   C173      1.0  0.98213  0.61500  0.38551  1.0000
  C   C174      1.0  0.00767  0.62784  0.42228  1.0000
  H   H82       1.0  0.96633  0.60410  0.42647  1.0000
  H   H83       1.0  0.00988  0.62634  0.48916  1.0000
  N   N88       1.0  0.05471  0.65014  0.40209  1.0000
  H   H84       1.0  0.05671  0.63728  0.43784  1.0000
  C   C175      1.0  0.37418  0.40668  0.36926  1.0000
  C   C176      1.0  0.40053  0.38508  0.38839  1.0000
  C   C177      1.0  0.38761  0.39776  0.42471  1.0000
  H   H85       1.0  0.41121  0.38002  0.42978  1.0000
  H   H86       1.0  0.38882  0.40128  0.49169  1.0000
  N   N89       1.0  0.36559  0.42274  0.40375  1.0000
  H   H87       1.0  0.37840  0.43761  0.43958  1.0000
  C   C178      1.0  0.60919  0.98571  0.36738  1.0000
  C   C179      1.0  0.63060  0.03368  0.38562  1.0000
  C   C180      1.0  0.61788  0.00813  0.42235  1.0000
  H   H88       1.0  0.63550  0.04947  0.42661  1.0000
  H   H89       1.0  0.61417  0.00591  0.48922  1.0000
  N   N90       1.0  0.59310  0.96110  0.40209  1.0000
  H   H90       1.0  0.57824  0.95910  0.43782  1.0000
