data_image0
_chemical_formula_structural       C8H6NC2H2C8H6NC2H2C8H6NC2H2C8H6NC2H2C8H6NC2H2C8H6NC2H2C2NC4H2NH2NC2NC4H2NH2NC2NC4H2NH2NC2HC2NHNH2NC2HC2NHNH2NC2HC2NHNH2NC2HC2NHNH2NC2HC2NHNH2NC2HC2NHNH2NC10H4CNCNHCHCHC10H4CNCNHCHCHC10H4CNCNHCHCHC10H4CNCNHCHCHC10H4CNCNHCHCHC10H4CNCNHCHCHC2HC2NHNH2NC2HC2NHNH2NC2HC2NHNH2NC2NC4H2NH2NC2NC4H2NH2NC2NC4H2NH2NC2NC4H2NH2NC2NC4H2NH2NC2NC4H2NH2N
_chemical_formula_sum              "C234 H162 N72"
_cell_length_a       91.5754
_cell_length_b       91.5754
_cell_length_c       15.0249
_cell_angle_alpha    90
_cell_angle_beta     90
_cell_angle_gamma    120

_space_group_name_H-M_alt    "P 1"
_space_group_IT_number       1

loop_
  _space_group_symop_operation_xyz
  'x, y, z'

loop_
  _atom_site_type_symbol
  _atom_site_label
  _atom_site_symmetry_multiplicity
  _atom_site_fract_x
  _atom_site_fract_y
  _atom_site_fract_z
  _atom_site_occupancy
  C   C1        1.0  0.12335  0.56519  0.32658  1.0000
  C   C2        1.0  0.08772  0.55021  0.30266  1.0000
  C   C3        1.0  0.09817  0.56790  0.30571  1.0000
  C   C4        1.0  0.11565  0.57523  0.31793  1.0000
  C   C5        1.0  0.17009  0.62592  0.35137  1.0000
  C   C6        1.0  0.17975  0.64363  0.35401  1.0000
  C   C7        1.0  0.17413  0.53447  0.36838  1.0000
  C   C8        1.0  0.16564  0.54372  0.36279  1.0000
  H   H1        1.0  0.09318  0.57567  0.29876  1.0000
  H   H2        1.0  0.12268  0.58811  0.31890  1.0000
  H   H3        1.0  0.15724  0.62050  0.35106  1.0000
  H   H4        1.0  0.17362  0.65041  0.35521  1.0000
  H   H5        1.0  0.16742  0.52195  0.38487  1.0000
  H   H6        1.0  0.15298  0.53759  0.37585  1.0000
  N   N1        1.0  0.15101  0.58984  0.33963  1.0000
  C   C9        1.0  0.14118  0.57279  0.33537  1.0000
  C   C10       1.0  0.07065  0.54340  0.28741  1.0000
  H   H7        1.0  0.06691  0.54963  0.24784  1.0000
  H   H8        1.0  0.19824  0.52694  0.42061  1.0000
  C   C11       1.0  0.43269  0.55780  0.32670  1.0000
  C   C12       1.0  0.44764  0.53710  0.30302  1.0000
  C   C13       1.0  0.42995  0.52988  0.30597  1.0000
  C   C14       1.0  0.42263  0.54004  0.31803  1.0000
  C   C15       1.0  0.37196  0.54382  0.35138  1.0000
  C   C16       1.0  0.35425  0.53577  0.35401  1.0000
  C   C17       1.0  0.46343  0.63930  0.36851  1.0000
  C   C18       1.0  0.45417  0.62156  0.36300  1.0000
  H   H9        1.0  0.42218  0.51713  0.29906  1.0000
  H   H10       1.0  0.40976  0.53420  0.31898  1.0000
  H   H11       1.0  0.37738  0.53639  0.35116  1.0000
  H   H12       1.0  0.34747  0.52286  0.35524  1.0000
  H   H13       1.0  0.47594  0.64510  0.38496  1.0000
  H   H14       1.0  0.46031  0.61503  0.37587  1.0000
  N   N2        1.0  0.40804  0.56081  0.33964  1.0000
  C   C19       1.0  0.42509  0.56802  0.33544  1.0000
  C   C20       1.0  0.45444  0.52683  0.28798  1.0000
  H   H15       1.0  0.44821  0.51685  0.24841  1.0000
  H   H16       1.0  0.47102  0.67096  0.42058  1.0000
  C   C21       1.0  0.44012  0.87451  0.32680  1.0000
  C   C22       1.0  0.46084  0.91015  0.30314  1.0000
  C   C23       1.0  0.46804  0.89966  0.30614  1.0000
  C   C24       1.0  0.45787  0.88219  0.31824  1.0000
  C   C25       1.0  0.45407  0.82776  0.35148  1.0000
  C   C26       1.0  0.46213  0.81810  0.35413  1.0000
  C   C27       1.0  0.35860  0.82373  0.36845  1.0000
  C   C28       1.0  0.37634  0.83223  0.36287  1.0000
  H   H17       1.0  0.48079  0.90463  0.29927  1.0000
  H   H18       1.0  0.46370  0.87514  0.31918  1.0000
  H   H19       1.0  0.46149  0.84060  0.35124  1.0000
  H   H20       1.0  0.47503  0.82423  0.35537  1.0000
  H   H21       1.0  0.35280  0.83044  0.38517  1.0000
  H   H22       1.0  0.38286  0.84488  0.37615  1.0000
  N   N3        1.0  0.43708  0.84684  0.33974  1.0000
  C   C29       1.0  0.42988  0.85668  0.33548  1.0000
  C   C30       1.0  0.47113  0.92721  0.28804  1.0000
  H   H23       1.0  0.48110  0.93094  0.24845  1.0000
  H   H24       1.0  0.32696  0.79964  0.42050  1.0000
  C   C31       1.0  0.87409  0.43182  0.33176  1.0000
  C   C32       1.0  0.90992  0.44656  0.31758  1.0000
  C   C33       1.0  0.89935  0.42890  0.32311  1.0000
  C   C34       1.0  0.88179  0.42169  0.33038  1.0000
  C   C35       1.0  0.82683  0.37127  0.34915  1.0000
  C   C36       1.0  0.81704  0.35357  0.35219  1.0000
  C   C37       1.0  0.82392  0.46331  0.36499  1.0000
  C   C38       1.0  0.83225  0.45389  0.35958  1.0000
  H   H25       1.0  0.90432  0.42107  0.32169  1.0000
  H   H26       1.0  0.87470  0.40883  0.33375  1.0000
  H   H27       1.0  0.83967  0.37658  0.34904  1.0000
  H   H28       1.0  0.82306  0.34669  0.35385  1.0000
  H   H29       1.0  0.83071  0.47577  0.38252  1.0000
  H   H30       1.0  0.84485  0.45986  0.37383  1.0000
  N   N4        1.0  0.84623  0.40732  0.33983  1.0000
  C   C39       1.0  0.85623  0.42436  0.33659  1.0000
  C   C40       1.0  0.92714  0.45327  0.30758  1.0000
  H   H31       1.0  0.93128  0.44628  0.27830  1.0000
  H   H32       1.0  0.79997  0.47101  0.41713  1.0000
  C   C41       1.0  0.56612  0.44194  0.33178  1.0000
  C   C42       1.0  0.55131  0.46296  0.31756  1.0000
  C   C43       1.0  0.56897  0.47008  0.32322  1.0000
  C   C44       1.0  0.57622  0.45976  0.33051  1.0000
  C   C45       1.0  0.62672  0.45529  0.34917  1.0000
  C   C46       1.0  0.64442  0.46320  0.35214  1.0000
  C   C47       1.0  0.53479  0.36029  0.36536  1.0000
  C   C48       1.0  0.54417  0.37802  0.35994  1.0000
  H   H33       1.0  0.57679  0.48289  0.32188  1.0000
  H   H34       1.0  0.58908  0.46555  0.33396  1.0000
  H   H35       1.0  0.62141  0.46281  0.34945  1.0000
  H   H36       1.0  0.65130  0.47610  0.35416  1.0000
  H   H37       1.0  0.52234  0.35459  0.38302  1.0000
  H   H38       1.0  0.53818  0.38464  0.37416  1.0000
  N   N5        1.0  0.59065  0.43862  0.33966  1.0000
  C   C49       1.0  0.57361  0.43156  0.33654  1.0000
  C   C50       1.0  0.54458  0.47345  0.30750  1.0000
  H   H39       1.0  0.55157  0.48461  0.27854  1.0000
  H   H40       1.0  0.52702  0.32860  0.41686  1.0000
  C   C51       1.0  0.55610  0.12379  0.33190  1.0000
  C   C52       1.0  0.53509  0.08796  0.31761  1.0000
  C   C53       1.0  0.52796  0.09850  0.32311  1.0000
  C   C54       1.0  0.53827  0.11606  0.33042  1.0000
  C   C55       1.0  0.54272  0.17103  0.34905  1.0000
  C   C56       1.0  0.53481  0.18083  0.35191  1.0000
  C   C57       1.0  0.63774  0.17412  0.36565  1.0000
  C   C58       1.0  0.62000  0.16576  0.36029  1.0000
  H   H41       1.0  0.51515  0.09350  0.32165  1.0000
  H   H42       1.0  0.53247  0.12312  0.33377  1.0000
  H   H43       1.0  0.53520  0.15820  0.34935  1.0000
  H   H44       1.0  0.52191  0.17480  0.35384  1.0000
  H   H45       1.0  0.64344  0.16737  0.38342  1.0000
  H   H46       1.0  0.61338  0.15316  0.37459  1.0000
  N   N6        1.0  0.55940  0.15163  0.33974  1.0000
  C   C59       1.0  0.56646  0.14166  0.33669  1.0000
  C   C60       1.0  0.52460  0.07073  0.30755  1.0000
  H   H47       1.0  0.51346  0.06657  0.27848  1.0000
  H   H48       1.0  0.66942  0.19803  0.41698  1.0000
  C   C61       1.0  0.95451  0.47674  0.33598  1.0000
  C   C62       1.0  0.96461  0.47334  0.27835  1.0000
  N   N7        1.0  0.98155  0.48342  0.27913  1.0000
  C   C63       1.0  0.98983  0.49707  0.33293  1.0000
  C   C64       1.0  0.00755  0.50611  0.32501  1.0000
  C   C65       1.0  0.01618  0.51351  0.24416  1.0000
  C   C66       1.0  0.03398  0.52147  0.24507  1.0000
  H   H49       1.0  0.04055  0.52689  0.18791  1.0000
  H   H50       1.0  0.95947  0.46355  0.23434  1.0000
  N   N8        1.0  0.00825  0.51370  0.16796  1.0000
  H   H51       1.0  0.99614  0.50918  0.16568  1.0000
  H   H52       1.0  0.01459  0.51916  0.11426  1.0000
  N   N9        1.0  0.93778  0.46795  0.33771  1.0000
  C   C67       1.0  0.52107  0.47730  0.33558  1.0000
  C   C68       1.0  0.52446  0.49079  0.27783  1.0000
  N   N10       1.0  0.51439  0.49766  0.27865  1.0000
  C   C69       1.0  0.50075  0.49231  0.33258  1.0000
  C   C70       1.0  0.49174  0.50102  0.32479  1.0000
  C   C71       1.0  0.48432  0.50227  0.24401  1.0000
  C   C72       1.0  0.47639  0.51213  0.24507  1.0000
  H   H53       1.0  0.47095  0.51328  0.18799  1.0000
  H   H54       1.0  0.53423  0.49541  0.23374  1.0000
  N   N11       1.0  0.48410  0.49414  0.16775  1.0000
  H   H55       1.0  0.48861  0.48655  0.16537  1.0000
  H   H56       1.0  0.47864  0.49504  0.11412  1.0000
  N   N12       1.0  0.52987  0.46937  0.33736  1.0000
  C   C73       1.0  0.52077  0.04338  0.33558  1.0000
  C   C74       1.0  0.50730  0.03328  0.27773  1.0000
  N   N13       1.0  0.50043  0.01634  0.27855  1.0000
  C   C75       1.0  0.50576  0.00805  0.33255  1.0000
  C   C76       1.0  0.49704  0.99033  0.32479  1.0000
  C   C77       1.0  0.49578  0.98166  0.24403  1.0000
  C   C78       1.0  0.48589  0.96386  0.24511  1.0000
  H   H57       1.0  0.48472  0.95727  0.18804  1.0000
  H   H58       1.0  0.50268  0.03844  0.23359  1.0000
  N   N14       1.0  0.50391  0.98955  0.16777  1.0000
  H   H59       1.0  0.51152  0.00165  0.16538  1.0000
  H   H60       1.0  0.50300  0.98318  0.11414  1.0000
  N   N15       1.0  0.52870  0.06011  0.33741  1.0000
  C   C79       1.0  0.28504  0.54942  0.26360  1.0000
  C   C80       1.0  0.30135  0.55133  0.26609  1.0000
  H   H61       1.0  0.31124  0.56182  0.23806  1.0000
  C   C81       1.0  0.22456  0.53241  0.31908  1.0000
  C   C82       1.0  0.23164  0.53068  0.23950  1.0000
  N   N16       1.0  0.24656  0.53097  0.24129  1.0000
  H   H62       1.0  0.22632  0.53045  0.17929  1.0000
  N   N17       1.0  0.28302  0.56168  0.22411  1.0000
  H   H63       1.0  0.29247  0.57147  0.19662  1.0000
  H   H64       1.0  0.27230  0.56142  0.22443  1.0000
  N   N18       1.0  0.21276  0.53672  0.31424  1.0000
  C   C83       1.0  0.44854  0.73528  0.26342  1.0000
  C   C84       1.0  0.44663  0.74968  0.26592  1.0000
  H   H65       1.0  0.43613  0.74908  0.23789  1.0000
  C   C85       1.0  0.46552  0.69181  0.31916  1.0000
  C   C86       1.0  0.46726  0.70060  0.23954  1.0000
  N   N19       1.0  0.46699  0.71524  0.24125  1.0000
  H   H66       1.0  0.46749  0.69551  0.17936  1.0000
  N   N20       1.0  0.43629  0.72100  0.22390  1.0000
  H   H67       1.0  0.42650  0.72067  0.19640  1.0000
  H   H68       1.0  0.43656  0.71055  0.22421  1.0000
  N   N21       1.0  0.46118  0.67569  0.31442  1.0000
  C   C87       1.0  0.26260  0.71285  0.26354  1.0000
  C   C88       1.0  0.24819  0.69654  0.26607  1.0000
  H   H69       1.0  0.24877  0.68665  0.23799  1.0000
  C   C89       1.0  0.30608  0.77332  0.31902  1.0000
  C   C90       1.0  0.29727  0.76625  0.23947  1.0000
  N   N22       1.0  0.28263  0.75133  0.24129  1.0000
  H   H70       1.0  0.30234  0.77156  0.17925  1.0000
  N   N23       1.0  0.27686  0.71487  0.22393  1.0000
  H   H71       1.0  0.27718  0.70541  0.19639  1.0000
  H   H72       1.0  0.28732  0.72558  0.22423  1.0000
  N   N24       1.0  0.32220  0.78511  0.31413  1.0000
  C   C91       1.0  0.71337  0.44919  0.26099  1.0000
  C   C92       1.0  0.69709  0.44734  0.26363  1.0000
  H   H73       1.0  0.68718  0.43690  0.23524  1.0000
  C   C93       1.0  0.77380  0.46598  0.31560  1.0000
  C   C94       1.0  0.76674  0.46786  0.23634  1.0000
  N   N25       1.0  0.75184  0.46762  0.23858  1.0000
  H   H74       1.0  0.77204  0.46816  0.17599  1.0000
  N   N26       1.0  0.71536  0.43697  0.22093  1.0000
  H   H75       1.0  0.70590  0.42723  0.19318  1.0000
  H   H76       1.0  0.72606  0.43719  0.22113  1.0000
  N   N27       1.0  0.78554  0.46161  0.31011  1.0000
  C   C95       1.0  0.54893  0.26385  0.26117  1.0000
  C   C96       1.0  0.55076  0.24941  0.26371  1.0000
  H   H77       1.0  0.56122  0.24994  0.23552  1.0000
  C   C97       1.0  0.53219  0.30752  0.31575  1.0000
  C   C98       1.0  0.53036  0.29862  0.23640  1.0000
  N   N28       1.0  0.53057  0.28394  0.23855  1.0000
  H   H78       1.0  0.53012  0.30366  0.17607  1.0000
  N   N29       1.0  0.56120  0.27808  0.22144  1.0000
  H   H79       1.0  0.57095  0.27836  0.19386  1.0000
  H   H80       1.0  0.56099  0.28857  0.22173  1.0000
  N   N30       1.0  0.53661  0.32365  0.31045  1.0000
  C   C99       1.0  0.73422  0.28460  0.26011  1.0000
  C   C100      1.0  0.74864  0.30090  0.26284  1.0000
  H   H81       1.0  0.74813  0.31080  0.23430  1.0000
  C   C101      1.0  0.69051  0.22425  0.31574  1.0000
  C   C102      1.0  0.69945  0.23123  0.23639  1.0000
  N   N31       1.0  0.71413  0.24612  0.23839  1.0000
  H   H82       1.0  0.69444  0.22590  0.17611  1.0000
  N   N32       1.0  0.72003  0.28261  0.21970  1.0000
  H   H83       1.0  0.71977  0.29206  0.19173  1.0000
  H   H84       1.0  0.70956  0.27190  0.21977  1.0000
  N   N33       1.0  0.67437  0.21255  0.31046  1.0000
  C   C103      1.0  0.17784  0.61584  0.34919  1.0000
  C   C104      1.0  0.17447  0.56123  0.34394  1.0000
  C   C105      1.0  0.11276  0.54744  0.32386  1.0000
  C   C106      1.0  0.09522  0.54005  0.31220  1.0000
  C   C107      1.0  0.19754  0.65194  0.35375  1.0000
  C   C108      1.0  0.20536  0.64195  0.35263  1.0000
  C   C109      1.0  0.19568  0.62425  0.35034  1.0000
  C   C110      1.0  0.19204  0.56903  0.32842  1.0000
  C   C111      1.0  0.20049  0.55980  0.33279  1.0000
  C   C112      1.0  0.19167  0.54237  0.35290  1.0000
  H   H85       1.0  0.20193  0.61760  0.34918  1.0000
  H   H86       1.0  0.21822  0.64746  0.35381  1.0000
  H   H87       1.0  0.19904  0.58163  0.31452  1.0000
  H   H88       1.0  0.21329  0.56610  0.32366  1.0000
  C   C113      1.0  0.16621  0.57092  0.34260  1.0000
  N   N34       1.0  0.17528  0.58805  0.34661  1.0000
  C   C114      1.0  0.16806  0.59790  0.34561  1.0000
  N   N35       1.0  0.14914  0.56361  0.33709  1.0000
  H   H89       1.0  0.11770  0.53963  0.32941  1.0000
  C   C115      1.0  0.20040  0.53382  0.36581  1.0000
  H   H90       1.0  0.08803  0.52718  0.30907  1.0000
  C   C116      1.0  0.20691  0.66941  0.35643  1.0000
  H   H91       1.0  0.20244  0.67577  0.38917  1.0000
  C   C117      1.0  0.38205  0.56165  0.34912  1.0000
  C   C118      1.0  0.43666  0.61288  0.34412  1.0000
  C   C119      1.0  0.45044  0.56494  0.32409  1.0000
  C   C120      1.0  0.45782  0.55477  0.31254  1.0000
  C   C121      1.0  0.34595  0.54527  0.35359  1.0000
  C   C122      1.0  0.35595  0.56307  0.35239  1.0000
  C   C123      1.0  0.37364  0.57109  0.35014  1.0000
  C   C124      1.0  0.42887  0.62266  0.32865  1.0000
  C   C125      1.0  0.43809  0.64033  0.33310  1.0000
  C   C126      1.0  0.45552  0.64894  0.35316  1.0000
  H   H92       1.0  0.38029  0.58398  0.34891  1.0000
  H   H93       1.0  0.35044  0.57043  0.35347  1.0000
  H   H94       1.0  0.41626  0.61705  0.31470  1.0000
  H   H95       1.0  0.43179  0.64682  0.32390  1.0000
  C   C127      1.0  0.42697  0.59493  0.34270  1.0000
  N   N36       1.0  0.40984  0.58687  0.34664  1.0000
  C   C128      1.0  0.39999  0.56981  0.34558  1.0000
  N   N37       1.0  0.43429  0.58517  0.33721  1.0000
  H   H96       1.0  0.45825  0.57768  0.32967  1.0000
  C   C129      1.0  0.46408  0.66623  0.36598  1.0000
  H   H97       1.0  0.47068  0.56044  0.30953  1.0000
  C   C130      1.0  0.32848  0.53717  0.35627  1.0000
  H   H98       1.0  0.32212  0.52634  0.38903  1.0000
  C   C131      1.0  0.43624  0.82001  0.34919  1.0000
  C   C132      1.0  0.38502  0.82341  0.34379  1.0000
  C   C133      1.0  0.43299  0.88513  0.32412  1.0000
  C   C134      1.0  0.44317  0.90267  0.31261  1.0000
  C   C135      1.0  0.45263  0.80030  0.35371  1.0000
  C   C136      1.0  0.43483  0.79249  0.35249  1.0000
  C   C137      1.0  0.42681  0.80216  0.35023  1.0000
  C   C138      1.0  0.37523  0.80584  0.32800  1.0000
  C   C139      1.0  0.35756  0.79739  0.33231  1.0000
  C   C140      1.0  0.34895  0.80620  0.35271  1.0000
  H   H99       1.0  0.41391  0.79592  0.34897  1.0000
  H   H100      1.0  0.42747  0.77963  0.35357  1.0000
  H   H101      1.0  0.38085  0.79885  0.31390  1.0000
  H   H102      1.0  0.35107  0.78460  0.32302  1.0000
  C   C141      1.0  0.40296  0.83166  0.34252  1.0000
  N   N38       1.0  0.41102  0.82258  0.34652  1.0000
  C   C142      1.0  0.42808  0.82978  0.34561  1.0000
  N   N39       1.0  0.41273  0.84873  0.33712  1.0000
  H   H103      1.0  0.42024  0.88020  0.32965  1.0000
  C   C143      1.0  0.33167  0.79746  0.36569  1.0000
  H   H104      1.0  0.43752  0.90988  0.30952  1.0000
  C   C144      1.0  0.46073  0.79093  0.35639  1.0000
  H   H105      1.0  0.47155  0.79540  0.38926  1.0000
  C   C145      1.0  0.81923  0.38149  0.34638  1.0000
  C   C146      1.0  0.82329  0.43642  0.33967  1.0000
  C   C147      1.0  0.88477  0.44953  0.32647  1.0000
  C   C148      1.0  0.90237  0.45679  0.31944  1.0000
  C   C149      1.0  0.79925  0.34542  0.35176  1.0000
  C   C150      1.0  0.79158  0.35553  0.34993  1.0000
  C   C151      1.0  0.80139  0.37322  0.34722  1.0000
  C   C152      1.0  0.80578  0.42886  0.32268  1.0000
  C   C153      1.0  0.79751  0.43826  0.32683  1.0000
  C   C154      1.0  0.80644  0.45563  0.34825  1.0000
  H   H106      1.0  0.79525  0.37997  0.34573  1.0000
  H   H107      1.0  0.77873  0.35013  0.35097  1.0000
  H   H108      1.0  0.79871  0.41630  0.30802  1.0000
  H   H109      1.0  0.78474  0.43210  0.31686  1.0000
  C   C155      1.0  0.83135  0.42654  0.33924  1.0000
  N   N40       1.0  0.82210  0.40941  0.34241  1.0000
  C   C156      1.0  0.82916  0.39942  0.34299  1.0000
  N   N41       1.0  0.84842  0.43369  0.33655  1.0000
  H   H110      1.0  0.87986  0.45740  0.32668  1.0000
  C   C157      1.0  0.79786  0.46433  0.36161  1.0000
  H   H111      1.0  0.90960  0.46963  0.31426  1.0000
  C   C158      1.0  0.78976  0.32797  0.35499  1.0000
  H   H112      1.0  0.79410  0.32159  0.38873  1.0000
  C   C159      1.0  0.61651  0.43748  0.34601  1.0000
  C   C160      1.0  0.56163  0.38658  0.33967  1.0000
  C   C161      1.0  0.54841  0.43487  0.32638  1.0000
  C   C162      1.0  0.54112  0.44519  0.31932  1.0000
  C   C163      1.0  0.65258  0.45357  0.35127  1.0000
  C   C164      1.0  0.64247  0.43579  0.34899  1.0000
  C   C165      1.0  0.62478  0.42791  0.34634  1.0000
  C   C166      1.0  0.56921  0.37666  0.32246  1.0000
  C   C167      1.0  0.55986  0.35898  0.32678  1.0000
  C   C168      1.0  0.54250  0.35051  0.34847  1.0000
  H   H113      1.0  0.61803  0.41502  0.34453  1.0000
  H   H114      1.0  0.64787  0.42834  0.34970  1.0000
  H   H115      1.0  0.58178  0.38217  0.30762  1.0000
  H   H116      1.0  0.56604  0.35240  0.31663  1.0000
  C   C169      1.0  0.57147  0.40451  0.33916  1.0000
  N   N42       1.0  0.58860  0.41243  0.34220  1.0000
  C   C170      1.0  0.59858  0.42947  0.34273  1.0000
  N   N43       1.0  0.56430  0.41442  0.33655  1.0000
  H   H117      1.0  0.54055  0.42208  0.32649  1.0000
  C   C171      1.0  0.53386  0.33323  0.36185  1.0000
  H   H118      1.0  0.52828  0.43955  0.31405  1.0000
  C   C172      1.0  0.67004  0.46153  0.35452  1.0000
  H   H119      1.0  0.67643  0.47229  0.38789  1.0000
  C   C173      1.0  0.56053  0.17863  0.34598  1.0000
  C   C174      1.0  0.61145  0.17466  0.33994  1.0000
  C   C175      1.0  0.56317  0.11315  0.32665  1.0000
  C   C176      1.0  0.55286  0.09554  0.31955  1.0000
  C   C177      1.0  0.54444  0.19862  0.35097  1.0000
  C   C178      1.0  0.56223  0.20628  0.34879  1.0000
  C   C179      1.0  0.57010  0.19647  0.34628  1.0000
  C   C180      1.0  0.62136  0.19217  0.32261  1.0000
  C   C181      1.0  0.63903  0.20048  0.32692  1.0000
  C   C182      1.0  0.64750  0.19161  0.34869  1.0000
  H   H120      1.0  0.58300  0.20262  0.34454  1.0000
  H   H121      1.0  0.56968  0.21914  0.34949  1.0000
  H   H122      1.0  0.61584  0.19920  0.30762  1.0000
  H   H123      1.0  0.64562  0.21325  0.31659  1.0000
  C   C183      1.0  0.59351  0.16657  0.33939  1.0000
  N   N44       1.0  0.58559  0.17579  0.34235  1.0000
  C   C184      1.0  0.56854  0.16871  0.34281  1.0000
  N   N45       1.0  0.58361  0.14949  0.33678  1.0000
  H   H124      1.0  0.57596  0.11809  0.32692  1.0000
  C   C185      1.0  0.66478  0.20024  0.36200  1.0000
  H   H125      1.0  0.55851  0.08835  0.31442  1.0000
  C   C186      1.0  0.53648  0.20811  0.35412  1.0000
  H   H126      1.0  0.52571  0.20374  0.38736  1.0000
  C   C187      1.0  0.98048  0.50126  0.39301  1.0000
  C   C188      1.0  0.96271  0.49082  0.39283  1.0000
  H   H127      1.0  0.95558  0.49363  0.43441  1.0000
  C   C189      1.0  0.04293  0.52229  0.32331  1.0000
  C   C190      1.0  0.03355  0.51437  0.40026  1.0000
  N   N46       1.0  0.01652  0.50672  0.39843  1.0000
  H   H128      1.0  0.03940  0.51448  0.45841  1.0000
  N   N47       1.0  0.98774  0.51494  0.44755  1.0000
  H   H129      1.0  0.98096  0.51762  0.48690  1.0000
  H   H130      1.0  0.99980  0.52277  0.44700  1.0000
  N   N48       1.0  0.05963  0.53006  0.32814  1.0000
  C   C191      1.0  0.49657  0.47879  0.39275  1.0000
  C   C192      1.0  0.50700  0.47145  0.39255  1.0000
  H   H131      1.0  0.50421  0.46153  0.43421  1.0000
  C   C193      1.0  0.47559  0.52026  0.32338  1.0000
  C   C194      1.0  0.48352  0.51877  0.40024  1.0000
  N   N49       1.0  0.49115  0.50937  0.39826  1.0000
  H   H132      1.0  0.48343  0.52451  0.45844  1.0000
  N   N50       1.0  0.48292  0.47239  0.44742  1.0000
  H   H133      1.0  0.48025  0.46294  0.48682  1.0000
  H   H134      1.0  0.47508  0.47662  0.44688  1.0000
  N   N51       1.0  0.46782  0.52919  0.32837  1.0000
  C   C195      1.0  0.51927  0.01740  0.39281  1.0000
  C   C196      1.0  0.52661  0.03517  0.39260  1.0000
  H   H135      1.0  0.53652  0.04229  0.43435  1.0000
  C   C197      1.0  0.47775  0.95495  0.32344  1.0000
  C   C198      1.0  0.47925  0.96437  0.40028  1.0000
  N   N52       1.0  0.48868  0.98140  0.39827  1.0000
  H   H136      1.0  0.47351  0.95855  0.45849  1.0000
  N   N53       1.0  0.52565  0.01013  0.44755  1.0000
  H   H137      1.0  0.53509  0.01691  0.48700  1.0000
  H   H138      1.0  0.52142  0.99807  0.44700  1.0000
  N   N54       1.0  0.46880  0.93825  0.32845  1.0000
  C   C199      1.0  0.30458  0.53973  0.31096  1.0000
  C   C200      1.0  0.29083  0.52560  0.35084  1.0000
  N   N55       1.0  0.27527  0.52394  0.34821  1.0000
  C   C201      1.0  0.27180  0.53507  0.30696  1.0000
  C   C202      1.0  0.25535  0.53255  0.31709  1.0000
  C   C203      1.0  0.24879  0.53408  0.40028  1.0000
  C   C204      1.0  0.23321  0.53385  0.39936  1.0000
  H   H139      1.0  0.22885  0.53624  0.45711  1.0000
  H   H140      1.0  0.29243  0.51692  0.38553  1.0000
  N   N56       1.0  0.25717  0.53686  0.47884  1.0000
  H   H141      1.0  0.26824  0.53790  0.48241  1.0000
  H   H142      1.0  0.25246  0.53822  0.53417  1.0000
  N   N57       1.0  0.32059  0.54376  0.31819  1.0000
  C   C205      1.0  0.45821  0.76451  0.31084  1.0000
  C   C206      1.0  0.47235  0.76489  0.35070  1.0000
  N   N58       1.0  0.47402  0.75100  0.34806  1.0000
  C   C207      1.0  0.46289  0.73639  0.30679  1.0000
  C   C208      1.0  0.46541  0.72247  0.31700  1.0000
  C   C209      1.0  0.46387  0.71438  0.40024  1.0000
  C   C210      1.0  0.46409  0.69903  0.39939  1.0000
  H   H143      1.0  0.46169  0.69229  0.45717  1.0000
  H   H144      1.0  0.48102  0.77517  0.38541  1.0000
  N   N59       1.0  0.46110  0.72001  0.47876  1.0000
  H   H145      1.0  0.46006  0.73003  0.48227  1.0000
  H   H146      1.0  0.45972  0.71392  0.53411  1.0000
  N   N60       1.0  0.45417  0.77648  0.31813  1.0000
  C   C211      1.0  0.23337  0.69331  0.31106  1.0000
  C   C212      1.0  0.23301  0.70706  0.35101  1.0000
  N   N61       1.0  0.24690  0.72261  0.34834  1.0000
  C   C213      1.0  0.26150  0.72609  0.30698  1.0000
  C   C214      1.0  0.27543  0.74253  0.31709  1.0000
  C   C215      1.0  0.28353  0.74909  0.40026  1.0000
  C   C216      1.0  0.29888  0.76466  0.39930  1.0000
  H   H147      1.0  0.30565  0.76902  0.45703  1.0000
  H   H148      1.0  0.22273  0.70546  0.38578  1.0000
  N   N62       1.0  0.27793  0.74070  0.47882  1.0000
  H   H149      1.0  0.26792  0.72964  0.48241  1.0000
  H   H150      1.0  0.28403  0.74541  0.53413  1.0000
  N   N63       1.0  0.22139  0.67730  0.31832  1.0000
  C   C217      1.0  0.69389  0.45891  0.30903  1.0000
  C   C218      1.0  0.70765  0.47296  0.34935  1.0000
  N   N64       1.0  0.72319  0.47458  0.34654  1.0000
  C   C219      1.0  0.72663  0.46347  0.30475  1.0000
  C   C220      1.0  0.74306  0.46595  0.31455  1.0000
  C   C221      1.0  0.74962  0.46428  0.39746  1.0000
  C   C222      1.0  0.76516  0.46445  0.39607  1.0000
  H   H151      1.0  0.76951  0.46195  0.45355  1.0000
  H   H152      1.0  0.70608  0.48162  0.38435  1.0000
  N   N65       1.0  0.74124  0.46142  0.47612  1.0000
  H   H153      1.0  0.73021  0.46043  0.47996  1.0000
  H   H154      1.0  0.74596  0.45996  0.53124  1.0000
  N   N66       1.0  0.67789  0.45495  0.31602  1.0000
  C   C223      1.0  0.53915  0.23461  0.30879  1.0000
  C   C224      1.0  0.52508  0.23432  0.34887  1.0000
  N   N67       1.0  0.52347  0.24824  0.34614  1.0000
  C   C225      1.0  0.53462  0.26282  0.30466  1.0000
  C   C226      1.0  0.53216  0.27678  0.31451  1.0000
  C   C227      1.0  0.53377  0.28496  0.39751  1.0000
  C   C228      1.0  0.53362  0.30035  0.39620  1.0000
  H   H155      1.0  0.53609  0.30716  0.45378  1.0000
  H   H156      1.0  0.51638  0.22407  0.38364  1.0000
  N   N68       1.0  0.53654  0.27938  0.47619  1.0000
  H   H157      1.0  0.53752  0.26933  0.48000  1.0000
  H   H158      1.0  0.53797  0.28553  0.53138  1.0000
  N   N69       1.0  0.54309  0.22257  0.31578  1.0000
  C   C229      1.0  0.76338  0.30412  0.30865  1.0000
  C   C230      1.0  0.76365  0.29036  0.34917  1.0000
  N   N70       1.0  0.74975  0.27482  0.34628  1.0000
  C   C231      1.0  0.73522  0.27136  0.30417  1.0000
  C   C232      1.0  0.72125  0.25495  0.31421  1.0000
  C   C233      1.0  0.71302  0.24847  0.39721  1.0000
  C   C234      1.0  0.69764  0.23293  0.39605  1.0000
  H   H159      1.0  0.69078  0.22864  0.45355  1.0000
  H   H160      1.0  0.77387  0.29195  0.38446  1.0000
  N   N71       1.0  0.71854  0.25690  0.47570  1.0000
  H   H161      1.0  0.72858  0.26794  0.47938  1.0000
  H   H162      1.0  0.71236  0.25224  0.53086  1.0000
  N   N72       1.0  0.77539  0.32012  0.31586  1.0000
