data_image0
_chemical_formula_structural       C14H12C7NC12H12C2NC3NC3NC15H14C2NC3NHCH3C2NC3NHCH3C2NC2NHCH3C2NC3NHCH3C2NC3NHCH3C2NC2NHCH3C3NC2NC5NC3NC17H14CNC2NC4NC18H14C2NC19H12C2HC5H3C2HC5H3C2HC6H3C2HC5H3C2HC5H3C2HC6H3
_chemical_formula_sum              "C210 H126 N24"
_cell_length_a       50.1808
_cell_length_b       50.1806
_cell_length_c       15.0099
_cell_angle_alpha    90.031
_cell_angle_beta     89.969
_cell_angle_gamma    120

_space_group_name_H-M_alt    "P 1"
_space_group_IT_number       1

loop_
  _space_group_symop_operation_xyz
  'x, y, z'

loop_
  _atom_site_type_symbol
  _atom_site_label
  _atom_site_symmetry_multiplicity
  _atom_site_fract_x
  _atom_site_fract_y
  _atom_site_fract_z
  _atom_site_occupancy
  C   C1        1.0  0.95780  0.54015  0.32368  1.0000
  C   C2        1.0  0.08208  0.53056  0.33087  1.0000
  C   C3        1.0  0.09195  0.56241  0.32326  1.0000
  C   C4        1.0  0.12209  0.61356  0.30874  1.0000
  C   C5        1.0  0.12221  0.58619  0.31093  1.0000
  C   C6        1.0  0.13003  0.71290  0.26944  1.0000
  C   C7        1.0  0.10670  0.68179  0.26836  1.0000
  C   C8        1.0  0.10520  0.52182  0.33046  1.0000
  C   C9        1.0  0.14697  0.51911  0.25464  1.0000
  C   C10       1.0  0.12248  0.52517  0.25291  1.0000
  C   C11       1.0  0.94328  0.42081  0.26826  1.0000
  C   C12       1.0  0.92006  0.38965  0.26932  1.0000
  C   C13       1.0  0.92725  0.57730  0.25291  1.0000
  C   C14       1.0  0.90271  0.58328  0.25465  1.0000
  H   H1        1.0  0.88979  0.57800  0.19812  1.0000
  H   H2        1.0  0.93136  0.56880  0.19572  1.0000
  H   H3        1.0  0.99617  0.63694  0.36277  1.0000
  H   H4        1.0  0.95971  0.42826  0.21944  1.0000
  H   H5        1.0  0.92103  0.37527  0.22295  1.0000
  H   H6        1.0  0.05359  0.46571  0.36373  1.0000
  H   H7        1.0  0.14131  0.63459  0.30007  1.0000
  H   H8        1.0  0.14158  0.58452  0.30448  1.0000
  H   H9        1.0  0.11837  0.53362  0.19565  1.0000
  H   H10       1.0  0.15984  0.52427  0.19801  1.0000
  H   H11       1.0  0.09035  0.67438  0.21934  1.0000
  H   H12       1.0  0.12921  0.72731  0.22292  1.0000
  C   C15       1.0  0.44910  0.45934  0.35615  1.0000
  C   C16       1.0  0.45437  0.50632  0.34152  1.0000
  C   C17       1.0  0.53551  0.49436  0.32290  1.0000
  C   C18       1.0  0.59444  0.59431  0.34118  1.0000
  C   C19       1.0  0.59972  0.64132  0.35562  1.0000
  C   C20       1.0  0.54515  0.62824  0.33048  1.0000
  C   C21       1.0  0.51329  0.60625  0.32301  1.0000
  N   N1        1.0  0.49955  0.57531  0.33115  1.0000
  C   C22       1.0  0.46215  0.58523  0.30822  1.0000
  C   C23       1.0  0.48952  0.61273  0.31033  1.0000
  C   C24       1.0  0.36280  0.49374  0.26928  1.0000
  C   C25       1.0  0.39391  0.50153  0.26822  1.0000
  C   C26       1.0  0.55389  0.66010  0.33008  1.0000
  C   C27       1.0  0.56810  0.72341  0.33154  1.0000
  C   C28       1.0  0.55664  0.70457  0.25425  1.0000
  C   C29       1.0  0.55054  0.67401  0.25253  1.0000
  C   C30       1.0  0.65489  0.59911  0.26810  1.0000
  C   C31       1.0  0.68603  0.60701  0.26919  1.0000
  C   C32       1.0  0.49828  0.42662  0.25242  1.0000
  C   C33       1.0  0.49231  0.39611  0.25416  1.0000
  H   H13       1.0  0.49754  0.38844  0.19755  1.0000
  H   H14       1.0  0.50672  0.43920  0.19516  1.0000
  H   H15       1.0  0.43878  0.43602  0.36323  1.0000
  H   H16       1.0  0.64746  0.60808  0.21924  1.0000
  H   H17       1.0  0.70044  0.62235  0.22285  1.0000
  H   H18       1.0  0.61003  0.66463  0.36292  1.0000
  H   H19       1.0  0.44113  0.58339  0.29907  1.0000
  H   H20       1.0  0.49119  0.63375  0.30352  1.0000
  H   H21       1.0  0.54211  0.66144  0.19524  1.0000
  H   H22       1.0  0.55146  0.71226  0.19765  1.0000
  H   H23       1.0  0.40133  0.49252  0.21936  1.0000
  H   H24       1.0  0.34839  0.47844  0.22287  1.0000
  C   C34       1.0  0.61646  0.06655  0.35500  1.0000
  C   C35       1.0  0.56945  0.02480  0.34078  1.0000
  N   N2        1.0  0.56768  0.05078  0.33200  1.0000
  C   C36       1.0  0.60335  0.10803  0.33028  1.0000
  C   C37       1.0  0.58136  0.11790  0.32282  1.0000
  C   C38       1.0  0.48138  0.07685  0.34060  1.0000
  N   N3        1.0  0.48314  0.05087  0.33168  1.0000
  C   C39       1.0  0.43436  0.03511  0.35471  1.0000
  C   C40       1.0  0.44748  0.99361  0.33033  1.0000
  C   C41       1.0  0.46948  0.98373  0.32308  1.0000
  N   N4        1.0  0.50043  0.00096  0.33097  1.0000
  C   C42       1.0  0.49050  0.95361  0.30857  1.0000
  C   C43       1.0  0.46300  0.95348  0.31066  1.0000
  C   C44       1.0  0.55462  0.97020  0.33374  1.0000
  C   C45       1.0  0.56889  0.92157  0.33197  1.0000
  C   C46       1.0  0.58197  0.94574  0.26888  1.0000
  C   C47       1.0  0.57417  0.96906  0.26782  1.0000
  C   C48       1.0  0.41563  0.97048  0.33001  1.0000
  C   C49       1.0  0.35233  0.92138  0.33164  1.0000
  C   C50       1.0  0.37118  0.92866  0.25440  1.0000
  C   C51       1.0  0.40172  0.95316  0.25253  1.0000
  C   C52       1.0  0.47663  0.13251  0.26763  1.0000
  C   C53       1.0  0.46873  0.15575  0.26874  1.0000
  C   C54       1.0  0.64911  0.14848  0.25242  1.0000
  C   C55       1.0  0.69845  0.18038  0.33154  1.0000
  C   C56       1.0  0.67962  0.17303  0.25427  1.0000
  H   H25       1.0  0.68731  0.18593  0.19772  1.0000
  H   H26       1.0  0.63654  0.14437  0.19518  1.0000
  H   H27       1.0  0.63977  0.07955  0.36229  1.0000
  H   H28       1.0  0.54928  0.05077  0.31375  1.0000
  H   H29       1.0  0.50159  0.05085  0.31409  1.0000
  H   H30       1.0  0.46771  0.11613  0.21868  1.0000
  H   H31       1.0  0.45343  0.15483  0.22229  1.0000
  H   H32       1.0  0.41106  0.02210  0.36210  1.0000
  H   H33       1.0  0.49234  0.93442  0.29941  1.0000
  H   H34       1.0  0.44198  0.93411  0.30397  1.0000
  H   H35       1.0  0.41430  0.95719  0.19531  1.0000
  H   H36       1.0  0.36348  0.91572  0.19788  1.0000
  H   H37       1.0  0.58312  0.98542  0.21884  1.0000
  H   H38       1.0  0.59723  0.94658  0.22237  1.0000
  C   C57       1.0  0.32082  0.50152  0.32946  1.0000
  C   C58       1.0  0.30681  0.50494  0.25082  1.0000
  N   N5        1.0  0.27866  0.50255  0.25704  1.0000
  C   C59       1.0  0.26253  0.49746  0.33363  1.0000
  C   C60       1.0  0.23443  0.49749  0.33454  1.0000
  C   C61       1.0  0.19497  0.50060  0.25507  1.0000
  N   N6        1.0  0.22110  0.49899  0.25772  1.0000
  H   H39       1.0  0.18673  0.50081  0.19326  1.0000
  C   C62       1.0  0.32164  0.51405  0.16203  1.0000
  H   H40       1.0  0.34485  0.53376  0.16818  1.0000
  H   H41       1.0  0.30877  0.52060  0.11704  1.0000
  H   H42       1.0  0.32267  0.49493  0.13125  1.0000
  C   C63       1.0  0.57424  0.89603  0.32918  1.0000
  C   C64       1.0  0.57078  0.87855  0.25056  1.0000
  N   N7        1.0  0.57318  0.85281  0.25677  1.0000
  C   C65       1.0  0.57829  0.84179  0.33335  1.0000
  C   C66       1.0  0.57825  0.81367  0.33424  1.0000
  C   C67       1.0  0.57514  0.77108  0.25474  1.0000
  N   N8        1.0  0.57675  0.79881  0.25741  1.0000
  H   H43       1.0  0.57493  0.76261  0.19293  1.0000
  C   C68       1.0  0.56164  0.88423  0.16178  1.0000
  H   H44       1.0  0.54195  0.88775  0.16799  1.0000
  H   H45       1.0  0.55505  0.86477  0.11685  1.0000
  H   H46       1.0  0.58077  0.90434  0.13091  1.0000
  C   C69       1.0  0.17976  0.75487  0.32974  1.0000
  C   C70       1.0  0.19719  0.76888  0.25105  1.0000
  N   N9        1.0  0.22294  0.79702  0.25723  1.0000
  C   C71       1.0  0.23398  0.81318  0.33379  1.0000
  C   C72       1.0  0.30465  0.88071  0.25497  1.0000
  N   N10       1.0  0.27692  0.85458  0.25772  1.0000
  H   H47       1.0  0.31310  0.88895  0.19315  1.0000
  C   C73       1.0  0.19155  0.75401  0.16232  1.0000
  H   H48       1.0  0.18804  0.73080  0.16863  1.0000
  H   H49       1.0  0.21102  0.76685  0.11741  1.0000
  H   H50       1.0  0.17143  0.75298  0.13135  1.0000
  C   C74       1.0  0.72813  0.59948  0.32953  1.0000
  C   C75       1.0  0.74232  0.59631  0.25086  1.0000
  N   N11       1.0  0.77055  0.59892  0.25713  1.0000
  C   C76       1.0  0.78665  0.60406  0.33377  1.0000
  C   C77       1.0  0.81487  0.60428  0.33467  1.0000
  C   C78       1.0  0.85458  0.60161  0.25515  1.0000
  N   N12       1.0  0.82834  0.60299  0.25782  1.0000
  H   H51       1.0  0.86293  0.60154  0.19335  1.0000
  C   C79       1.0  0.72754  0.58708  0.16202  1.0000
  H   H52       1.0  0.70440  0.56727  0.16813  1.0000
  H   H53       1.0  0.74055  0.58066  0.11710  1.0000
  H   H54       1.0  0.72638  0.60612  0.13119  1.0000
  C   C80       1.0  0.47622  0.20537  0.32915  1.0000
  C   C81       1.0  0.47941  0.22272  0.25048  1.0000
  N   N13       1.0  0.47679  0.24833  0.25674  1.0000
  C   C82       1.0  0.47162  0.25931  0.33336  1.0000
  C   C83       1.0  0.47140  0.28730  0.33426  1.0000
  C   C84       1.0  0.47409  0.32967  0.25473  1.0000
  N   N14       1.0  0.47270  0.30204  0.25741  1.0000
  H   H55       1.0  0.47418  0.33806  0.19292  1.0000
  C   C85       1.0  0.48867  0.21716  0.16167  1.0000
  H   H56       1.0  0.50847  0.21382  0.16784  1.0000
  H   H57       1.0  0.49514  0.23660  0.11680  1.0000
  H   H58       1.0  0.46965  0.19697  0.13074  1.0000
  C   C86       1.0  0.87044  0.34750  0.32954  1.0000
  C   C87       1.0  0.85310  0.33334  0.25085  1.0000
  N   N15       1.0  0.82747  0.30511  0.25706  1.0000
  C   C88       1.0  0.81647  0.28899  0.33367  1.0000
  C   C89       1.0  0.74610  0.22110  0.25490  1.0000
  N   N16       1.0  0.77375  0.24733  0.25764  1.0000
  H   H59       1.0  0.73773  0.21277  0.19309  1.0000
  C   C90       1.0  0.85869  0.34814  0.16205  1.0000
  H   H60       1.0  0.86200  0.37127  0.16820  1.0000
  H   H61       1.0  0.83928  0.33514  0.11708  1.0000
  H   H62       1.0  0.87891  0.34932  0.13124  1.0000
  C   C91       1.0  0.00918  0.62665  0.35519  1.0000
  C   C92       1.0  0.04086  0.64230  0.35805  1.0000
  C   C93       1.0  0.05092  0.62137  0.34108  1.0000
  N   N17       1.0  0.02494  0.59362  0.33217  1.0000
  C   C94       1.0  0.99900  0.59554  0.33989  1.0000
  C   C95       1.0  0.96768  0.57202  0.33092  1.0000
  N   N18       1.0  0.97503  0.52642  0.33155  1.0000
  C   C96       1.0  0.95781  0.49546  0.32389  1.0000
  C   C97       1.0  0.92768  0.48900  0.30904  1.0000
  C   C98       1.0  0.92755  0.51637  0.31128  1.0000
  C   C99       1.0  0.96751  0.47336  0.33250  1.0000
  C   C100      1.0  0.99886  0.48125  0.34149  1.0000
  N   N19       1.0  0.02483  0.50902  0.33279  1.0000
  C   C101      1.0  0.05076  0.50708  0.34042  1.0000
  C   C102      1.0  0.04059  0.47601  0.35630  1.0000
  C   C103      1.0  0.00890  0.46036  0.35902  1.0000
  N   N20       1.0  0.07474  0.57616  0.33130  1.0000
  C   C104      1.0  0.09196  0.60711  0.32361  1.0000
  C   C105      1.0  0.08228  0.62922  0.33249  1.0000
  C   C106      1.0  0.10554  0.66111  0.33427  1.0000
  C   C107      1.0  0.12832  0.67261  0.40146  1.0000
  C   C108      1.0  0.15265  0.70320  0.39901  1.0000
  C   C109      1.0  0.15421  0.72400  0.33255  1.0000
  C   C110      1.0  0.11214  0.51068  0.40816  1.0000
  C   C111      1.0  0.13544  0.50287  0.40778  1.0000
  C   C112      1.0  0.15432  0.50762  0.33189  1.0000
  C   C113      1.0  0.94428  0.44146  0.33409  1.0000
  C   C114      1.0  0.89583  0.37846  0.33229  1.0000
  C   C115      1.0  0.89719  0.39924  0.39859  1.0000
  C   C116      1.0  0.92141  0.42989  0.40106  1.0000
  C   C117      1.0  0.94455  0.58075  0.33044  1.0000
  C   C118      1.0  0.93763  0.59197  0.40808  1.0000
  C   C119      1.0  0.91427  0.59969  0.40769  1.0000
  C   C120      1.0  0.89533  0.59477  0.33189  1.0000
  H   H63       1.0  0.91136  0.60878  0.46515  1.0000
  H   H64       1.0  0.94983  0.59491  0.46547  1.0000
  H   H65       1.0  0.05403  0.66545  0.36858  1.0000
  H   H66       1.0  0.02491  0.57515  0.31470  1.0000
  H   H67       1.0  0.02486  0.52734  0.31359  1.0000
  H   H68       1.0  0.90818  0.51803  0.30465  1.0000
  H   H69       1.0  0.90848  0.46798  0.30002  1.0000
  H   H70       1.0  0.92145  0.44412  0.45004  1.0000
  H   H71       1.0  0.88015  0.39244  0.44533  1.0000
  H   H72       1.0  0.99574  0.43720  0.36954  1.0000
  H   H73       1.0  0.09996  0.50783  0.46559  1.0000
  H   H74       1.0  0.13831  0.49380  0.46528  1.0000
  H   H75       1.0  0.16965  0.70993  0.44579  1.0000
  H   H76       1.0  0.12819  0.65834  0.45040  1.0000
  C   C121      1.0  0.43347  0.47539  0.35921  1.0000
  N   N21       1.0  0.48214  0.50811  0.33275  1.0000
  C   C122      1.0  0.48019  0.48024  0.34036  1.0000
  C   C123      1.0  0.50365  0.47238  0.33049  1.0000
  N   N22       1.0  0.54926  0.52531  0.33115  1.0000
  C   C124      1.0  0.58021  0.53905  0.32341  1.0000
  C   C125      1.0  0.58666  0.51538  0.30828  1.0000
  C   C126      1.0  0.55928  0.48788  0.31032  1.0000
  C   C127      1.0  0.60231  0.57083  0.33225  1.0000
  N   N23       1.0  0.56669  0.59254  0.33233  1.0000
  C   C128      1.0  0.56863  0.62041  0.33996  1.0000
  C   C129      1.0  0.61534  0.62526  0.35875  1.0000
  C   C130      1.0  0.46860  0.56156  0.32334  1.0000
  C   C131      1.0  0.44650  0.52978  0.33226  1.0000
  C   C132      1.0  0.41460  0.52114  0.33401  1.0000
  C   C133      1.0  0.40311  0.53250  0.40104  1.0000
  C   C134      1.0  0.37251  0.52621  0.39858  1.0000
  C   C135      1.0  0.35170  0.50687  0.33225  1.0000
  C   C136      1.0  0.56505  0.67820  0.40777  1.0000
  C   C137      1.0  0.57286  0.70931  0.40741  1.0000
  C   C138      1.0  0.63422  0.57948  0.33388  1.0000
  C   C139      1.0  0.69719  0.59396  0.33218  1.0000
  C   C140      1.0  0.67638  0.57457  0.39846  1.0000
  C   C141      1.0  0.64574  0.56817  0.40088  1.0000
  C   C142      1.0  0.49490  0.44052  0.33000  1.0000
  C   C143      1.0  0.48379  0.42244  0.40771  1.0000
  C   C144      1.0  0.47607  0.39135  0.40734  1.0000
  C   C145      1.0  0.48092  0.37728  0.33147  1.0000
  H   H77       1.0  0.46705  0.37940  0.46488  1.0000
  H   H78       1.0  0.48092  0.43174  0.46517  1.0000
  H   H79       1.0  0.41028  0.46537  0.36903  1.0000
  H   H80       1.0  0.50045  0.52639  0.31340  1.0000
  H   H81       1.0  0.54832  0.57416  0.31388  1.0000
  H   H82       1.0  0.55761  0.46685  0.30356  1.0000
  H   H83       1.0  0.60768  0.51720  0.29923  1.0000
  H   H84       1.0  0.63148  0.55397  0.44976  1.0000
  H   H85       1.0  0.68315  0.56431  0.44515  1.0000
  H   H86       1.0  0.63852  0.63527  0.36878  1.0000
  H   H87       1.0  0.56790  0.66889  0.46519  1.0000
  H   H88       1.0  0.58194  0.72127  0.46491  1.0000
  H   H89       1.0  0.36578  0.53653  0.44525  1.0000
  H   H90       1.0  0.41738  0.54671  0.44991  1.0000
  C   C146      1.0  0.60041  0.03486  0.35809  1.0000
  C   C147      1.0  0.59553  0.07672  0.33965  1.0000
  N   N24       1.0  0.55040  0.10069  0.33080  1.0000
  C   C148      1.0  0.53666  0.11790  0.32312  1.0000
  C   C149      1.0  0.56034  0.14803  0.30841  1.0000
  C   C150      1.0  0.58784  0.14816  0.31056  1.0000
  C   C151      1.0  0.50487  0.10820  0.33188  1.0000
  C   C152      1.0  0.45530  0.02493  0.33940  1.0000
  C   C153      1.0  0.45040  0.06679  0.35770  1.0000
  C   C154      1.0  0.51418  0.98374  0.32335  1.0000
  C   C155      1.0  0.54598  0.99345  0.33197  1.0000
  C   C156      1.0  0.54333  0.94741  0.40091  1.0000
  C   C157      1.0  0.54961  0.92310  0.39843  1.0000
  C   C158      1.0  0.39754  0.96364  0.40769  1.0000
  C   C159      1.0  0.36642  0.94033  0.40740  1.0000
  C   C160      1.0  0.49620  0.13145  0.33354  1.0000
  C   C161      1.0  0.48173  0.17995  0.33183  1.0000
  C   C162      1.0  0.50106  0.17851  0.39822  1.0000
  C   C163      1.0  0.50747  0.15428  0.40062  1.0000
  C   C164      1.0  0.63521  0.13117  0.32991  1.0000
  C   C165      1.0  0.65329  0.13808  0.40760  1.0000
  C   C166      1.0  0.68438  0.16144  0.40731  1.0000
  H   H91       1.0  0.69634  0.16433  0.46479  1.0000
  H   H92       1.0  0.64399  0.12587  0.46497  1.0000
  H   H93       1.0  0.61044  0.02170  0.36802  1.0000
  H   H94       1.0  0.60887  0.16753  0.30406  1.0000
  H   H95       1.0  0.55852  0.16724  0.29954  1.0000
  H   H96       1.0  0.52161  0.15420  0.44963  1.0000
  H   H97       1.0  0.51130  0.19553  0.44500  1.0000
  H   H98       1.0  0.44039  0.07995  0.36792  1.0000
  H   H99       1.0  0.40684  0.97586  0.46504  1.0000
  H   H100      1.0  0.35446  0.93751  0.46487  1.0000
  H   H101      1.0  0.53933  0.90609  0.44521  1.0000
  H   H102      1.0  0.52917  0.94753  0.44987  1.0000
  C   C167      1.0  0.27553  0.49461  0.41423  1.0000
  C   C168      1.0  0.30411  0.49566  0.41038  1.0000
  H   H103      1.0  0.31347  0.49341  0.46856  1.0000
  C   C169      1.0  0.18031  0.50244  0.33403  1.0000
  C   C170      1.0  0.19375  0.50001  0.41497  1.0000
  C   C171      1.0  0.22016  0.49680  0.41662  1.0000
  C   C172      1.0  0.23322  0.49397  0.49691  1.0000
  C   C173      1.0  0.26031  0.49217  0.49557  1.0000
  H   H104      1.0  0.22320  0.49333  0.55689  1.0000
  H   H105      1.0  0.26960  0.49058  0.55466  1.0000
  H   H106      1.0  0.18518  0.50173  0.47496  1.0000
  C   C174      1.0  0.58115  0.85767  0.41395  1.0000
  C   C175      1.0  0.58011  0.88521  0.41008  1.0000
  H   H107      1.0  0.58238  0.89685  0.46826  1.0000
  C   C176      1.0  0.57330  0.75460  0.33369  1.0000
  C   C177      1.0  0.57572  0.77048  0.41465  1.0000
  C   C178      1.0  0.57894  0.80010  0.41632  1.0000
  C   C179      1.0  0.58178  0.81602  0.49661  1.0000
  C   C180      1.0  0.58360  0.84492  0.49528  1.0000
  H   H108      1.0  0.58243  0.80667  0.55658  1.0000
  H   H109      1.0  0.58519  0.85582  0.55437  1.0000
  H   H110      1.0  0.57402  0.76021  0.47463  1.0000
  C   C181      1.0  0.21812  0.80019  0.41441  1.0000
  C   C182      1.0  0.19059  0.77160  0.41062  1.0000
  H   H111      1.0  0.17897  0.76226  0.46882  1.0000
  C   C183      1.0  0.26210  0.84127  0.33459  1.0000
  C   C184      1.0  0.32115  0.89539  0.33389  1.0000
  C   C185      1.0  0.30530  0.88197  0.41489  1.0000
  C   C186      1.0  0.27568  0.85556  0.41663  1.0000
  C   C187      1.0  0.25979  0.84252  0.49697  1.0000
  C   C188      1.0  0.23089  0.81543  0.49572  1.0000
  H   H112      1.0  0.26916  0.85255  0.55692  1.0000
  H   H113      1.0  0.22001  0.80616  0.55483  1.0000
  H   H114      1.0  0.31559  0.89057  0.47483  1.0000
  C   C189      1.0  0.77350  0.60671  0.41439  1.0000
  C   C190      1.0  0.74480  0.60540  0.41050  1.0000
  H   H115      1.0  0.73533  0.60752  0.46870  1.0000
  C   C191      1.0  0.86923  0.59978  0.33409  1.0000
  C   C192      1.0  0.85566  0.60200  0.41508  1.0000
  C   C193      1.0  0.82913  0.60499  0.41677  1.0000
  C   C194      1.0  0.81592  0.60762  0.49708  1.0000
  C   C195      1.0  0.78870  0.60919  0.49576  1.0000
  H   H116      1.0  0.82592  0.60828  0.55707  1.0000
  H   H117      1.0  0.77931  0.61063  0.55485  1.0000
  H   H118      1.0  0.86425  0.60031  0.47503  1.0000
  C   C196      1.0  0.46896  0.24353  0.41398  1.0000
  C   C197      1.0  0.47026  0.21613  0.41010  1.0000
  H   H119      1.0  0.46815  0.20458  0.46831  1.0000
  C   C198      1.0  0.47589  0.34616  0.33367  1.0000
  C   C199      1.0  0.47366  0.33039  0.41465  1.0000
  C   C200      1.0  0.47068  0.30087  0.41635  1.0000
  C   C201      1.0  0.46806  0.28506  0.49666  1.0000
  C   C202      1.0  0.46647  0.25627  0.49535  1.0000
  H   H120      1.0  0.46740  0.29443  0.55665  1.0000
  H   H121      1.0  0.46505  0.24546  0.55444  1.0000
  H   H122      1.0  0.47539  0.34070  0.47461  1.0000
  C   C203      1.0  0.83222  0.30213  0.41432  1.0000
  C   C204      1.0  0.85963  0.33083  0.41049  1.0000
  H   H123      1.0  0.87116  0.34028  0.46873  1.0000
  C   C205      1.0  0.78846  0.26079  0.33452  1.0000
  C   C206      1.0  0.72957  0.20646  0.33381  1.0000
  C   C207      1.0  0.74532  0.22001  0.41483  1.0000
  C   C208      1.0  0.77485  0.24654  0.41659  1.0000
  C   C209      1.0  0.79063  0.25974  0.49693  1.0000
  C   C210      1.0  0.81946  0.28692  0.49567  1.0000
  H   H124      1.0  0.78124  0.24976  0.55691  1.0000
  H   H125      1.0  0.83022  0.29635  0.55480  1.0000
  H   H126      1.0  0.73497  0.21146  0.47476  1.0000
