data_image0
_chemical_formula_structural       C8H8CNC2NCHCNC2NCHC3NC3NC5NC5NC20H18N5C2HCHNC2HCH
_chemical_formula_sum              "C58 H32 N14"
_cell_length_a       25.638
_cell_length_b       25.6359
_cell_length_c       14.6982
_cell_angle_alpha    90
_cell_angle_beta     90
_cell_angle_gamma    90.03

_space_group_name_H-M_alt    "P 1"
_space_group_IT_number       1

loop_
  _space_group_symop_operation_xyz
  'x, y, z'

loop_
  _atom_site_type_symbol
  _atom_site_label
  _atom_site_symmetry_multiplicity
  _atom_site_fract_x
  _atom_site_fract_y
  _atom_site_fract_z
  _atom_site_occupancy
  C   C1        1.0  0.23281  0.00182  0.28996  1.0000
  C   C2        1.0  0.28782  0.00217  0.28929  1.0000
  C   C3        1.0  0.00288  0.78881  0.29010  1.0000
  C   C4        1.0  0.00291  0.73380  0.28934  1.0000
  C   C5        1.0  0.73504  0.02025  0.29649  1.0000
  C   C6        1.0  0.79003  0.01996  0.29657  1.0000
  C   C7        1.0  0.02084  0.23142  0.29668  1.0000
  C   C8        1.0  0.02133  0.28641  0.29646  1.0000
  H   H1        1.0  0.02908  0.30510  0.23661  1.0000
  H   H2        1.0  0.02790  0.21193  0.23715  1.0000
  H   H3        1.0  0.80945  0.02759  0.23719  1.0000
  H   H4        1.0  0.71629  0.02838  0.23685  1.0000
  H   H5        1.0  0.99625  0.80847  0.23060  1.0000
  H   H6        1.0  0.99623  0.71486  0.22912  1.0000
  H   H7        1.0  0.30682  0.99590  0.22900  1.0000
  H   H8        1.0  0.21323  0.99535  0.23033  1.0000
  C   C9        1.0  0.01304  0.45703  0.34393  1.0000
  N   N1        1.0  0.01259  0.54833  0.30755  1.0000
  C   C10       1.0  0.01259  0.49796  0.27842  1.0000
  C   C11       1.0  0.01218  0.49093  0.19069  1.0000
  N   N2        1.0  0.01182  0.48459  0.11335  1.0000
  C   C12       1.0  0.01343  0.40393  0.32216  1.0000
  H   H9        1.0  0.01475  0.39390  0.25702  1.0000
  C   C13       1.0  0.56447  0.01180  0.34421  1.0000
  N   N3        1.0  0.47317  0.01154  0.30788  1.0000
  C   C14       1.0  0.52354  0.01154  0.27872  1.0000
  C   C15       1.0  0.53054  0.01130  0.19099  1.0000
  N   N4        1.0  0.53686  0.01109  0.11364  1.0000
  C   C16       1.0  0.61756  0.01222  0.32238  1.0000
  H   H10       1.0  0.62756  0.01396  0.25726  1.0000
  C   C17       1.0  0.10837  0.14531  0.37639  1.0000
  C   C18       1.0  0.14652  0.10730  0.37448  1.0000
  C   C19       1.0  0.12223  0.05848  0.37415  1.0000
  N   N5        1.0  0.07026  0.06893  0.37515  1.0000
  C   C20       1.0  0.05964  0.12086  0.37632  1.0000
  C   C21       1.0  0.01074  0.14739  0.37765  1.0000
  C   C22       1.0  0.96138  0.12194  0.37796  1.0000
  N   N6        1.0  0.95124  0.07009  0.37749  1.0000
  C   C23       1.0  0.89943  0.05976  0.37768  1.0000
  C   C24       1.0  0.87472  0.10832  0.37862  1.0000
  C   C25       1.0  0.91275  0.14649  0.37819  1.0000
  C   C26       1.0  0.87414  0.01031  0.37743  1.0000
  C   C27       1.0  0.90081  0.96149  0.37623  1.0000
  N   N7        1.0  0.95278  0.95105  0.37532  1.0000
  C   C28       1.0  0.96341  0.89912  0.37367  1.0000
  C   C29       1.0  0.91468  0.87466  0.37388  1.0000
  C   C30       1.0  0.87652  0.91268  0.37489  1.0000
  C   C31       1.0  0.01231  0.87262  0.37256  1.0000
  C   C32       1.0  0.06167  0.89807  0.37248  1.0000
  N   N8        1.0  0.07182  0.94991  0.37288  1.0000
  C   C33       1.0  0.12364  0.96023  0.37215  1.0000
  C   C34       1.0  0.14835  0.91169  0.37154  1.0000
  C   C35       1.0  0.11030  0.87352  0.37120  1.0000
  C   C36       1.0  0.14892  0.00968  0.37256  1.0000
  C   C37       1.0  0.20487  0.01021  0.37159  1.0000
  C   C38       1.0  0.31667  0.01081  0.36981  1.0000
  C   C39       1.0  0.28852  0.01954  0.45138  1.0000
  C   C40       1.0  0.23352  0.01909  0.45231  1.0000
  C   C41       1.0  0.01197  0.81667  0.37160  1.0000
  C   C42       1.0  0.01196  0.70487  0.36963  1.0000
  C   C43       1.0  0.02134  0.73292  0.45108  1.0000
  C   C44       1.0  0.02120  0.78793  0.45210  1.0000
  C   C45       1.0  0.81819  0.00982  0.37732  1.0000
  C   C46       1.0  0.78975  0.99987  0.45791  1.0000
  C   C47       1.0  0.73473  1.00000  0.45753  1.0000
  C   C48       1.0  0.70635  0.01003  0.37698  1.0000
  C   C49       1.0  0.01109  0.20334  0.37767  1.0000
  C   C50       1.0  0.00175  0.23187  0.45838  1.0000
  C   C51       1.0  0.01167  0.31518  0.37707  1.0000
  C   C52       1.0  0.00207  0.28689  0.45788  1.0000
  H   H11       1.0  0.99511  0.30632  0.51751  1.0000
  H   H12       1.0  0.99464  0.21269  0.51819  1.0000
  H   H13       1.0  0.11580  0.18448  0.37750  1.0000
  H   H14       1.0  0.18566  0.11485  0.37368  1.0000
  H   H15       1.0  0.04385  0.04243  0.37488  1.0000
  H   H16       1.0  0.97918  0.97754  0.37588  1.0000
  H   H17       1.0  0.90543  0.18567  0.37822  1.0000
  H   H18       1.0  0.83552  0.11552  0.37926  1.0000
  H   H19       1.0  0.80899  0.99260  0.51759  1.0000
  H   H20       1.0  0.71536  0.99269  0.51710  1.0000
  H   H21       1.0  0.83737  0.90514  0.37468  1.0000
  H   H22       1.0  0.90727  0.83548  0.37312  1.0000
  H   H23       1.0  0.18755  0.90451  0.37122  1.0000
  H   H24       1.0  0.11761  0.83434  0.37033  1.0000
  H   H25       1.0  0.02817  0.80695  0.51212  1.0000
  H   H26       1.0  0.02870  0.71366  0.51053  1.0000
  H   H27       1.0  0.21444  0.02544  0.51246  1.0000
  H   H28       1.0  0.30773  0.02653  0.51103  1.0000
  N   N9        1.0  0.01191  0.65272  0.36285  1.0000
  N   N10       1.0  0.65412  0.01004  0.38253  1.0000
  N   N11       1.0  0.01168  0.36742  0.38244  1.0000
  N   N12       1.0  0.36881  0.01085  0.36316  1.0000
  N   N13       1.0  0.01347  0.47195  0.43295  1.0000
  C   C53       1.0  0.01343  0.52238  0.46150  1.0000
  C   C54       1.0  0.01298  0.56303  0.39652  1.0000
  H   H29       1.0  0.01382  0.53000  0.52977  1.0000
  C   C55       1.0  0.01324  0.61538  0.42155  1.0000
  H   H30       1.0  0.01421  0.62409  0.48739  1.0000
  N   N14       1.0  0.54957  0.01205  0.43324  1.0000
  C   C56       1.0  0.49915  0.01202  0.46182  1.0000
  C   C57       1.0  0.45849  0.01176  0.39686  1.0000
  H   H31       1.0  0.49154  0.01226  0.53009  1.0000
  C   C58       1.0  0.40614  0.01198  0.42190  1.0000
  H   H32       1.0  0.39742  0.01269  0.48774  1.0000
