data_image0
_chemical_formula_structural       C8H2N2O4C8H2N2O4C8H2N2O4C2H2C2H2C2H2C2H2C2H2C2H2CNCNCNCNCNCNCNCNCNCNCNCNC2H2C2H2C2H2C2H2C2H2C2H2C8H2N2O4C8H2N2O4C8H2N2O4
_chemical_formula_sum              "C84 H36 N24 O24"
_cell_length_a       34.084
_cell_length_b       34.0864
_cell_length_c       14.7648
_cell_angle_alpha    90
_cell_angle_beta     90
_cell_angle_gamma    120.007

_space_group_name_H-M_alt    "P 1"
_space_group_IT_number       1

loop_
  _space_group_symop_operation_xyz
  'x, y, z'

loop_
  _atom_site_type_symbol
  _atom_site_label
  _atom_site_symmetry_multiplicity
  _atom_site_fract_x
  _atom_site_fract_y
  _atom_site_fract_z
  _atom_site_occupancy
  C   C1        1.0  0.10471  0.05232  0.34395  1.0000
  C   C2        1.0  0.12996  0.03655  0.29428  1.0000
  C   C3        1.0  0.17808  0.06174  0.29525  1.0000
  C   C4        1.0  0.20216  0.10223  0.34544  1.0000
  C   C5        1.0  0.25058  0.12724  0.34543  1.0000
  C   C6        1.0  0.27588  0.14978  0.26673  1.0000
  C   C7        1.0  0.32397  0.17439  0.27060  1.0000
  C   C8        1.0  0.34756  0.17580  0.35031  1.0000
  H   H1        1.0  0.34187  0.19048  0.21350  1.0000
  H   H2        1.0  0.19575  0.05011  0.25874  1.0000
  N   N1        1.0  0.25260  0.14758  0.18574  1.0000
  N   N2        1.0  0.10703  0.99677  0.24109  1.0000
  O   O1        1.0  0.26244  0.12894  0.12327  1.0000
  O   O2        1.0  0.11620  0.96703  0.26620  1.0000
  O   O3        1.0  0.26150  0.18626  0.15973  1.0000
  O   O4        1.0  0.11646  0.00484  0.15844  1.0000
  C   C9        1.0  0.96345  0.05547  0.34791  1.0000
  C   C10       1.0  0.97828  0.09571  0.29609  1.0000
  C   C11       1.0  0.95321  0.11872  0.29810  1.0000
  C   C12       1.0  0.91369  0.10313  0.35121  1.0000
  C   C13       1.0  0.88838  0.12629  0.35083  1.0000
  C   C14       1.0  0.86591  0.12885  0.27180  1.0000
  C   C15       1.0  0.84129  0.15231  0.27492  1.0000
  C   C16       1.0  0.83973  0.17468  0.35419  1.0000
  H   H3        1.0  0.82530  0.15399  0.21752  1.0000
  H   H4        1.0  0.96410  0.14739  0.25980  1.0000
  N   N3        1.0  0.86817  0.10756  0.19117  1.0000
  N   N4        1.0  0.01681  0.11144  0.23945  1.0000
  O   O5        1.0  0.88687  0.13585  0.12842  1.0000
  O   O6        1.0  0.04715  0.15076  0.26080  1.0000
  O   O7        1.0  0.82952  0.07766  0.16521  1.0000
  O   O8        1.0  0.00682  0.11123  0.15744  1.0000
  C   C17       1.0  0.96012  0.91092  0.34453  1.0000
  C   C18       1.0  0.91888  0.88575  0.29547  1.0000
  C   C19       1.0  0.89585  0.83763  0.29642  1.0000
  C   C20       1.0  0.91239  0.81347  0.34596  1.0000
  C   C21       1.0  0.88888  0.76504  0.34585  1.0000
  C   C22       1.0  0.88572  0.73975  0.26688  1.0000
  C   C23       1.0  0.86218  0.69166  0.27065  1.0000
  C   C24       1.0  0.84034  0.66805  0.35056  1.0000
  H   H5        1.0  0.86008  0.67376  0.21333  1.0000
  H   H6        1.0  0.86640  0.82002  0.26033  1.0000
  N   N5        1.0  0.90649  0.76305  0.18572  1.0000
  N   N6        1.0  0.90196  0.90879  0.24284  1.0000
  O   O9        1.0  0.87776  0.75329  0.12378  1.0000
  O   O10       1.0  0.86317  0.89974  0.26858  1.0000
  O   O11       1.0  0.93613  0.75412  0.15888  1.0000
  O   O12       1.0  0.90031  0.89939  0.16012  1.0000
  C   C25       1.0  0.63941  0.19470  0.27887  1.0000
  C   C26       1.0  0.68452  0.20429  0.27514  1.0000
  H   H7        1.0  0.62996  0.21280  0.23791  1.0000
  H   H8        1.0  0.70606  0.22880  0.23089  1.0000
  C   C27       1.0  0.49879  0.15787  0.28662  1.0000
  C   C28       1.0  0.53636  0.15127  0.28213  1.0000
  H   H9        1.0  0.48075  0.15423  0.22865  1.0000
  H   H10       1.0  0.54358  0.14172  0.22145  1.0000
  C   C29       1.0  0.81980  0.44732  0.27903  1.0000
  C   C30       1.0  0.81014  0.48280  0.27519  1.0000
  H   H11       1.0  0.80169  0.41971  0.23818  1.0000
  H   H12       1.0  0.78560  0.47976  0.23096  1.0000
  C   C31       1.0  0.85740  0.34398  0.28693  1.0000
  C   C32       1.0  0.86364  0.38802  0.28224  1.0000
  H   H13       1.0  0.86106  0.32960  0.22900  1.0000
  H   H14       1.0  0.87302  0.40471  0.22145  1.0000
  C   C33       1.0  0.56766  0.37659  0.27877  1.0000
  C   C34       1.0  0.53238  0.33137  0.27495  1.0000
  H   H15       1.0  0.59534  0.38623  0.23805  1.0000
  H   H16       1.0  0.53561  0.30993  0.23083  1.0000
  C   C35       1.0  0.67081  0.51733  0.28682  1.0000
  C   C36       1.0  0.62665  0.47973  0.28225  1.0000
  H   H17       1.0  0.68521  0.53541  0.22891  1.0000
  H   H18       1.0  0.60988  0.47255  0.22156  1.0000
  C   C37       1.0  0.98509  0.95943  0.34589  1.0000
  N   N7        1.0  0.96386  0.98431  0.34745  1.0000
  C   C38       1.0  0.98691  0.03047  0.34773  1.0000
  N   N8        1.0  0.03302  0.05170  0.34687  1.0000
  C   C39       1.0  0.05619  0.02871  0.34539  1.0000
  N   N9        1.0  0.03127  0.98259  0.34519  1.0000
  C   C40       1.0  0.46640  0.26698  0.34190  1.0000
  N   N10       1.0  0.42023  0.24483  0.34276  1.0000
  C   C41       1.0  0.39552  0.19879  0.35176  1.0000
  N   N11       1.0  0.41760  0.17481  0.36006  1.0000
  C   C42       1.0  0.46365  0.19642  0.36045  1.0000
  N   N12       1.0  0.48702  0.24200  0.35111  1.0000
  C   C43       1.0  0.74870  0.20252  0.34277  1.0000
  N   N13       1.0  0.77079  0.17844  0.34495  1.0000
  C   C44       1.0  0.81680  0.19974  0.35464  1.0000
  N   N14       1.0  0.84082  0.24584  0.36228  1.0000
  C   C45       1.0  0.81927  0.27034  0.36125  1.0000
  N   N15       1.0  0.77373  0.24813  0.35135  1.0000
  C   C46       1.0  0.81215  0.54901  0.34211  1.0000
  N   N16       1.0  0.83637  0.59519  0.34297  1.0000
  C   C47       1.0  0.81522  0.62008  0.35192  1.0000
  N   N17       1.0  0.76916  0.59818  0.36017  1.0000
  C   C48       1.0  0.74453  0.55214  0.36051  1.0000
  N   N18       1.0  0.76656  0.52859  0.35124  1.0000
  C   C49       1.0  0.17692  0.11750  0.39488  1.0000
  C   C50       1.0  0.12920  0.09331  0.39317  1.0000
  H   H19       1.0  0.19320  0.14686  0.43165  1.0000
  H   H20       1.0  0.11238  0.10568  0.43032  1.0000
  C   C51       1.0  0.32210  0.15251  0.42746  1.0000
  C   C52       1.0  0.27437  0.12932  0.42551  1.0000
  H   H21       1.0  0.33816  0.15284  0.48632  1.0000
  H   H22       1.0  0.25700  0.11298  0.48293  1.0000
  C   C53       1.0  0.89945  0.06345  0.40297  1.0000
  C   C54       1.0  0.92355  0.03982  0.40041  1.0000
  H   H23       1.0  0.87077  0.05090  0.44177  1.0000
  H   H24       1.0  0.91189  0.01114  0.43898  1.0000
  C   C55       1.0  0.86285  0.17263  0.43176  1.0000
  C   C56       1.0  0.88607  0.14810  0.43055  1.0000
  H   H25       1.0  0.86243  0.18851  0.49033  1.0000
  H   H26       1.0  0.90236  0.14727  0.48820  1.0000
  C   C57       1.0  0.95313  0.83864  0.39473  1.0000
  C   C58       1.0  0.97677  0.88637  0.39303  1.0000
  H   H27       1.0  0.96632  0.82231  0.43097  1.0000
  H   H28       1.0  0.00615  0.90315  0.42965  1.0000
  C   C59       1.0  0.84288  0.69350  0.42800  1.0000
  C   C60       1.0  0.86748  0.74123  0.42610  1.0000
  H   H29       1.0  0.82735  0.67743  0.48699  1.0000
  H   H30       1.0  0.86877  0.75859  0.48373  1.0000
  C   C61       1.0  0.70100  0.18362  0.33563  1.0000
  C   C62       1.0  0.67028  0.15120  0.39836  1.0000
  C   C63       1.0  0.62468  0.14176  0.40121  1.0000
  C   C64       1.0  0.60892  0.16406  0.34346  1.0000
  C   C65       1.0  0.56612  0.16154  0.35667  1.0000
  C   C66       1.0  0.55639  0.17730  0.43817  1.0000
  C   C67       1.0  0.51851  0.18389  0.44161  1.0000
  C   C68       1.0  0.48982  0.17497  0.36612  1.0000
  H   H31       1.0  0.51400  0.19876  0.49795  1.0000
  H   H32       1.0  0.60337  0.11999  0.44954  1.0000
  N   N19       1.0  0.58678  0.19031  0.51234  1.0000
  N   N20       1.0  0.68650  0.13154  0.46186  1.0000
  O   O13       1.0  0.56731  0.16804  0.58227  1.0000
  O   O14       1.0  0.68277  0.14206  0.54170  1.0000
  O   O15       1.0  0.60441  0.23184  0.52982  1.0000
  O   O16       1.0  0.66553  0.08911  0.45523  1.0000
  C   C69       1.0  0.83090  0.52007  0.33537  1.0000
  C   C70       1.0  0.86337  0.52188  0.39809  1.0000
  C   C71       1.0  0.87285  0.48575  0.40109  1.0000
  C   C72       1.0  0.85055  0.44762  0.34351  1.0000
  C   C73       1.0  0.85328  0.40746  0.35674  1.0000
  C   C74       1.0  0.83775  0.38202  0.43833  1.0000
  C   C75       1.0  0.83158  0.33771  0.44199  1.0000
  C   C76       1.0  0.84063  0.31796  0.36662  1.0000
  H   H33       1.0  0.81685  0.31837  0.49845  1.0000
  H   H34       1.0  0.89469  0.48631  0.44936  1.0000
  N   N21       1.0  0.82449  0.39924  0.51236  1.0000
  N   N22       1.0  0.88305  0.55784  0.46139  1.0000
  O   O17       1.0  0.84679  0.40228  0.58239  1.0000
  O   O18       1.0  0.87259  0.54369  0.54130  1.0000
  O   O19       1.0  0.78298  0.37507  0.52976  1.0000
  O   O20       1.0  0.92548  0.57933  0.45465  1.0000
  C   C77       1.0  0.49511  0.31469  0.33513  1.0000
  C   C78       1.0  0.49298  0.34524  0.39766  1.0000
  C   C79       1.0  0.52892  0.39095  0.40063  1.0000
  C   C80       1.0  0.56710  0.40695  0.34315  1.0000
  C   C81       1.0  0.60720  0.44985  0.35663  1.0000
  C   C82       1.0  0.63271  0.45949  0.43810  1.0000
  C   C83       1.0  0.67717  0.49739  0.44167  1.0000
  C   C84       1.0  0.69689  0.52614  0.36626  1.0000
  H   H35       1.0  0.69657  0.50180  0.49793  1.0000
  H   H36       1.0  0.52822  0.41217  0.44887  1.0000
  N   N23       1.0  0.61536  0.42895  0.51206  1.0000
  N   N24       1.0  0.45696  0.32879  0.46084  1.0000
  O   O21       1.0  0.61254  0.44827  0.58222  1.0000
  O   O22       1.0  0.47107  0.33264  0.54083  1.0000
  O   O23       1.0  0.63928  0.41132  0.52921  1.0000
  O   O24       1.0  0.43524  0.34948  0.45385  1.0000
