data_image0
_chemical_formula_structural       C3H2C3H2C4HCHC3H2NCOHC8H4C3HC4N2C2HCHC2H2CHC4H4COHCOCOCOC2HC2HC11H6C6H3C6N2HCOHC7H6NCH2CHC2HCH
_chemical_formula_sum              "C84 H48 N6 O6"
_cell_length_a       45.4084
_cell_length_b       45.4193
_cell_length_c       14.663
_cell_angle_alpha    90
_cell_angle_beta     90
_cell_angle_gamma    119.983

_space_group_name_H-M_alt    "P 1"
_space_group_IT_number       1

loop_
  _space_group_symop_operation_xyz
  'x, y, z'

loop_
  _atom_site_type_symbol
  _atom_site_label
  _atom_site_symmetry_multiplicity
  _atom_site_fract_x
  _atom_site_fract_y
  _atom_site_fract_z
  _atom_site_occupancy
  C   C1        1.0  0.21820  0.61337  0.35637  1.0000
  C   C2        1.0  0.16447  0.61119  0.39186  1.0000
  C   C3        1.0  0.20030  0.62895  0.39101  1.0000
  H   H1        1.0  0.21304  0.65326  0.41610  1.0000
  H   H2        1.0  0.15211  0.62304  0.41756  1.0000
  C   C4        1.0  0.33334  0.69703  0.35384  1.0000
  C   C5        1.0  0.31510  0.66110  0.35433  1.0000
  C   C6        1.0  0.33308  0.64313  0.35461  1.0000
  H   H3        1.0  0.31994  0.61701  0.35513  1.0000
  H   H4        1.0  0.32038  0.71021  0.35380  1.0000
  C   C7        1.0  0.28184  0.64465  0.35495  1.0000
  C   C8        1.0  0.25142  0.62971  0.35566  1.0000
  C   C9        1.0  0.05347  0.52424  0.34303  1.0000
  C   C10       1.0  0.02970  0.50573  0.27351  1.0000
  H   H5        1.0  0.03786  0.50118  0.21273  1.0000
  C   C11       1.0  0.08767  0.53475  0.32881  1.0000
  H   H6        1.0  0.09333  0.52050  0.28929  1.0000
  C   C12       1.0  0.19968  0.57979  0.32286  1.0000
  C   C13       1.0  0.16387  0.56217  0.32375  1.0000
  C   C14       1.0  0.14573  0.57769  0.35782  1.0000
  H   H7        1.0  0.21196  0.56774  0.29777  1.0000
  H   H8        1.0  0.15126  0.53778  0.29989  1.0000
  N   N1        1.0  0.11191  0.56254  0.36221  1.0000
  C   C15       1.0  0.04100  0.53020  0.42559  1.0000
  O   O1        1.0  0.06200  0.54652  0.49722  1.0000
  H   H9        1.0  0.06663  0.57009  0.49537  1.0000
  C   C16       1.0  0.41814  0.61309  0.35701  1.0000
  C   C17       1.0  0.41878  0.81180  0.35463  1.0000
  C   C18       1.0  0.45500  0.57752  0.35920  1.0000
  C   C19       1.0  0.42724  0.56776  0.29899  1.0000
  C   C20       1.0  0.40905  0.58537  0.29767  1.0000
  C   C21       1.0  0.45595  0.88418  0.35689  1.0000
  C   C22       1.0  0.47237  0.86526  0.37342  1.0000
  C   C23       1.0  0.45410  0.82946  0.37191  1.0000
  H   H10       1.0  0.41964  0.54743  0.25634  1.0000
  H   H11       1.0  0.38903  0.57754  0.25340  1.0000
  H   H12       1.0  0.49793  0.87748  0.38657  1.0000
  H   H13       1.0  0.46687  0.81655  0.38400  1.0000
  C   C24       1.0  0.36927  0.71498  0.35363  1.0000
  C   C25       1.0  0.36902  0.66084  0.35446  1.0000
  C   C26       1.0  0.38698  0.69676  0.35395  1.0000
  H   H14       1.0  0.41311  0.70973  0.35401  1.0000
  C   C27       1.0  0.40170  0.77861  0.35399  1.0000
  C   C28       1.0  0.38609  0.74820  0.35366  1.0000
  C   C29       1.0  0.40115  0.62931  0.35614  1.0000
  C   C30       1.0  0.38565  0.64422  0.35525  1.0000
  N   N2        1.0  0.47270  0.56143  0.36610  1.0000
  N   N3        1.0  0.47475  0.91793  0.36159  1.0000
  C   C31       1.0  0.49582  0.52601  0.33514  1.0000
  C   C32       1.0  0.50707  0.51298  0.26387  1.0000
  H   H15       1.0  0.50158  0.51534  0.19739  1.0000
  C   C33       1.0  0.47605  0.54068  0.31320  1.0000
  H   H16       1.0  0.46413  0.53488  0.25341  1.0000
  C   C34       1.0  0.49395  0.97611  0.34485  1.0000
  C   C35       1.0  0.49980  0.99967  0.27430  1.0000
  H   H17       1.0  0.48751  0.99136  0.21303  1.0000
  H   H18       1.0  0.50888  0.06044  0.21343  1.0000
  C   C36       1.0  0.47023  0.94197  0.33126  1.0000
  H   H19       1.0  0.44964  0.93621  0.29453  1.0000
  C   C37       1.0  0.44562  0.62281  0.41774  1.0000
  C   C38       1.0  0.46369  0.60506  0.41891  1.0000
  C   C39       1.0  0.40207  0.83051  0.33902  1.0000
  C   C40       1.0  0.42048  0.86629  0.34035  1.0000
  H   H20       1.0  0.48339  0.61247  0.46396  1.0000
  H   H21       1.0  0.37640  0.81838  0.32718  1.0000
  H   H22       1.0  0.40758  0.87912  0.33039  1.0000
  H   H23       1.0  0.45269  0.64272  0.46196  1.0000
  C   C41       1.0  0.50352  0.52143  0.42608  1.0000
  O   O2        1.0  0.49350  0.53266  0.49939  1.0000
  H   H24       1.0  0.47061  0.51428  0.51553  1.0000
  C   C42       1.0  0.51171  0.98867  0.42824  1.0000
  O   O3        1.0  0.50623  0.96776  0.50066  1.0000
  C   C43       1.0  0.52525  0.49589  0.28140  1.0000
  O   O4        1.0  0.53326  0.48255  0.20872  1.0000
  C   C44       1.0  0.52244  0.03481  0.28577  1.0000
  O   O5        1.0  0.52772  0.05563  0.21328  1.0000
  C   C45       1.0  0.52171  0.50436  0.44363  1.0000
  C   C46       1.0  0.53241  0.49078  0.37242  1.0000
  H   H25       1.0  0.52630  0.50109  0.51024  1.0000
  C   C47       1.0  0.53430  0.02380  0.43973  1.0000
  C   C48       1.0  0.54027  0.04743  0.36915  1.0000
  H   H26       1.0  0.52513  0.96305  0.50111  1.0000
  C   C49       1.0  0.81726  0.41036  0.35116  1.0000
  C   C50       1.0  0.61904  0.41265  0.34955  1.0000
  C   C51       1.0  0.61682  0.21220  0.34992  1.0000
  C   C52       1.0  0.58321  0.44925  0.34711  1.0000
  C   C53       1.0  0.60908  0.45631  0.28288  1.0000
  C   C54       1.0  0.62697  0.43838  0.28414  1.0000
  C   C55       1.0  0.87108  0.41432  0.30681  1.0000
  C   C56       1.0  0.83526  0.39654  0.30698  1.0000
  C   C57       1.0  0.58007  0.13975  0.35001  1.0000
  C   C58       1.0  0.56950  0.15835  0.29523  1.0000
  C   C59       1.0  0.58759  0.19416  0.29499  1.0000
  H   H27       1.0  0.61519  0.47473  0.23447  1.0000
  H   H28       1.0  0.64566  0.44425  0.23661  1.0000
  H   H29       1.0  0.82260  0.37351  0.27449  1.0000
  H   H30       1.0  0.88352  0.40376  0.27420  1.0000
  H   H31       1.0  0.54838  0.14589  0.25483  1.0000
  H   H32       1.0  0.57913  0.20680  0.25444  1.0000
  C   C60       1.0  0.66600  0.30905  0.35172  1.0000
  C   C61       1.0  0.70194  0.32681  0.35199  1.0000
  C   C62       1.0  0.72037  0.36273  0.35227  1.0000
  C   C63       1.0  0.70260  0.38090  0.35232  1.0000
  C   C64       1.0  0.66667  0.36341  0.35207  1.0000
  C   C65       1.0  0.64850  0.32748  0.35179  1.0000
  H   H33       1.0  0.71590  0.40702  0.35232  1.0000
  H   H34       1.0  0.71476  0.31350  0.35176  1.0000
  H   H35       1.0  0.62237  0.31467  0.35140  1.0000
  C   C66       1.0  0.63361  0.24541  0.35026  1.0000
  C   C67       1.0  0.64907  0.27581  0.35096  1.0000
  C   C68       1.0  0.63541  0.39581  0.35057  1.0000
  C   C69       1.0  0.65036  0.38034  0.35146  1.0000
  C   C70       1.0  0.75362  0.37903  0.35195  1.0000
  C   C71       1.0  0.78404  0.39397  0.35150  1.0000
  N   N4        1.0  0.56689  0.46672  0.34002  1.0000
  N   N5        1.0  0.56141  0.10593  0.34625  1.0000
  H   H36       1.0  0.55474  0.50098  0.18416  1.0000
  C   C72       1.0  0.99455  0.49316  0.28518  1.0000
  O   O6        1.0  0.97358  0.47680  0.21354  1.0000
  H   H37       1.0  0.96889  0.45322  0.21565  1.0000
  C   C73       1.0  0.59293  0.40513  0.41336  1.0000
  C   C74       1.0  0.57518  0.42319  0.41193  1.0000
  C   C75       1.0  0.83566  0.44220  0.39488  1.0000
  C   C76       1.0  0.87147  0.45985  0.39457  1.0000
  C   C77       1.0  0.88973  0.44610  0.35077  1.0000
  C   C78       1.0  0.62762  0.19383  0.40482  1.0000
  C   C79       1.0  0.60944  0.15804  0.40478  1.0000
  H   H38       1.0  0.55603  0.41676  0.45803  1.0000
  H   H39       1.0  0.82330  0.45292  0.42726  1.0000
  H   H40       1.0  0.88398  0.48291  0.42643  1.0000
  H   H41       1.0  0.64872  0.20622  0.44545  1.0000
  H   H42       1.0  0.61792  0.14557  0.44549  1.0000
  H   H43       1.0  0.58639  0.38638  0.46110  1.0000
  N   N6        1.0  0.92355  0.46129  0.34680  1.0000
  C   C80       1.0  0.54767  0.47161  0.39504  1.0000
  H   H44       1.0  0.54360  0.46144  0.45703  1.0000
  H   H45       1.0  0.54646  0.03205  0.50118  1.0000
  C   C81       1.0  0.56388  0.08163  0.38374  1.0000
  H   H46       1.0  0.58301  0.08727  0.42625  1.0000
  C   C82       1.0  0.00585  0.51763  0.43728  1.0000
  C   C83       1.0  0.98206  0.49913  0.36774  1.0000
  H   H47       1.0  0.99770  0.52215  0.49810  1.0000
  C   C84       1.0  0.94786  0.48858  0.38219  1.0000
  H   H48       1.0  0.94220  0.50246  0.42322  1.0000
