data_image0
_chemical_formula_structural       C5H6C4H4C4H2NC3H2NC2HNC12H6C6H3C9H3C8H4C6H3C6H2C3HNH2NC3HNH2NCHCHC2HC3H2C2HCHCNHNC2H
_chemical_formula_sum              "C84 H51 N9"
_cell_length_a       45.3784
_cell_length_b       45.384
_cell_length_c       14.3818
_cell_angle_alpha    90
_cell_angle_beta     90
_cell_angle_gamma    119.994

_space_group_name_H-M_alt    "P 1"
_space_group_IT_number       1

loop_
  _space_group_symop_operation_xyz
  'x, y, z'

loop_
  _atom_site_type_symbol
  _atom_site_label
  _atom_site_symmetry_multiplicity
  _atom_site_fract_x
  _atom_site_fract_y
  _atom_site_fract_z
  _atom_site_occupancy
  C   C1        1.0  0.42475  0.59179  0.35119  1.0000
  C   C2        1.0  0.46164  0.84378  0.34934  1.0000
  C   C3        1.0  0.47592  0.87926  0.35993  1.0000
  C   C4        1.0  0.20995  0.62863  0.34933  1.0000
  C   C5        1.0  0.17446  0.60741  0.35991  1.0000
  H   H1        1.0  0.43772  0.55362  0.33605  1.0000
  H   H2        1.0  0.47522  0.83476  0.31451  1.0000
  H   H3        1.0  0.49954  0.89494  0.33261  1.0000
  H   H4        1.0  0.21895  0.65123  0.31454  1.0000
  H   H5        1.0  0.15877  0.61535  0.33264  1.0000
  H   H6        1.0  0.40180  0.57789  0.31827  1.0000
  C   C6        1.0  0.44600  0.57755  0.36155  1.0000
  C   C7        1.0  0.64106  0.45219  0.39575  1.0000
  C   C8        1.0  0.60108  0.19967  0.39137  1.0000
  C   C9        1.0  0.58698  0.16413  0.38346  1.0000
  H   H7        1.0  0.62978  0.49178  0.39926  1.0000
  H   H8        1.0  0.58524  0.20916  0.40494  1.0000
  H   H9        1.0  0.56124  0.14887  0.39102  1.0000
  H   H10       1.0  0.66606  0.46780  0.41340  1.0000
  C   C10       1.0  0.61961  0.46627  0.38762  1.0000
  C   C11       1.0  0.52933  0.50043  0.31115  1.0000
  C   C12       1.0  0.51101  0.51790  0.31094  1.0000
  C   C13       1.0  0.51390  0.53945  0.38514  1.0000
  H   H11       1.0  0.52702  0.48560  0.25500  1.0000
  H   H12       1.0  0.49575  0.51507  0.25525  1.0000
  N   N1        1.0  0.49573  0.55528  0.38037  1.0000
  C   C14       1.0  0.55287  0.03974  0.31119  1.0000
  C   C15       1.0  0.53546  0.00395  0.31084  1.0000
  C   C16       1.0  0.51425  0.98524  0.38554  1.0000
  H   H13       1.0  0.56744  0.05231  0.25470  1.0000
  H   H14       1.0  0.53806  0.99156  0.25469  1.0000
  N   N2        1.0  0.49845  0.95124  0.38065  1.0000
  C   C17       1.0  0.04977  0.54231  0.31090  1.0000
  C   C18       1.0  0.06848  0.53976  0.38552  1.0000
  H   H15       1.0  0.06217  0.55734  0.25483  1.0000
  N   N3        1.0  0.10248  0.55796  0.38066  1.0000
  C   C19       1.0  0.42924  0.82108  0.38661  1.0000
  C   C20       1.0  0.43489  0.62459  0.38618  1.0000
  C   C21       1.0  0.23266  0.61894  0.38659  1.0000
  C   C22       1.0  0.47791  0.59562  0.40711  1.0000
  C   C23       1.0  0.48770  0.62852  0.44166  1.0000
  C   C24       1.0  0.46663  0.64284  0.43139  1.0000
  C   C25       1.0  0.45828  0.89306  0.40795  1.0000
  C   C26       1.0  0.42578  0.86991  0.44481  1.0000
  C   C27       1.0  0.41143  0.83452  0.43436  1.0000
  C   C28       1.0  0.16067  0.57597  0.40793  1.0000
  C   C29       1.0  0.18384  0.56664  0.44476  1.0000
  C   C30       1.0  0.21923  0.58769  0.43431  1.0000
  H   H16       1.0  0.51048  0.64258  0.47522  1.0000
  H   H17       1.0  0.47476  0.66668  0.45775  1.0000
  H   H18       1.0  0.38788  0.81879  0.46238  1.0000
  H   H19       1.0  0.41203  0.87860  0.48019  1.0000
  H   H20       1.0  0.17516  0.54421  0.48013  1.0000
  H   H21       1.0  0.23498  0.57988  0.46233  1.0000
  C   C31       1.0  0.32947  0.67066  0.37206  1.0000
  C   C32       1.0  0.34813  0.70662  0.37217  1.0000
  C   C33       1.0  0.38413  0.72428  0.37207  1.0000
  C   C34       1.0  0.40143  0.70562  0.37221  1.0000
  C   C35       1.0  0.38311  0.66963  0.37212  1.0000
  C   C36       1.0  0.34713  0.65232  0.37222  1.0000
  H   H22       1.0  0.42757  0.71834  0.37301  1.0000
  H   H23       1.0  0.33541  0.72003  0.37296  1.0000
  H   H24       1.0  0.33372  0.62619  0.37300  1.0000
  C   C37       1.0  0.26571  0.63826  0.37829  1.0000
  C   C38       1.0  0.29612  0.65433  0.37408  1.0000
  C   C39       1.0  0.41553  0.63828  0.37817  1.0000
  C   C40       1.0  0.39944  0.65261  0.37408  1.0000
  C   C41       1.0  0.40115  0.75763  0.37408  1.0000
  C   C42       1.0  0.41550  0.78804  0.37830  1.0000
  C   C43       1.0  0.12579  0.55442  0.42163  1.0000
  C   C44       1.0  0.47161  0.92795  0.42163  1.0000
  C   C45       1.0  0.49948  0.58230  0.42072  1.0000
  H   H25       1.0  0.51943  0.59494  0.46246  1.0000
  H   H26       1.0  0.45915  0.93524  0.46411  1.0000
  H   H27       1.0  0.11850  0.53465  0.46405  1.0000
  C   C46       1.0  0.63641  0.22179  0.37969  1.0000
  C   C47       1.0  0.62833  0.41721  0.37884  1.0000
  C   C48       1.0  0.58492  0.44587  0.36226  1.0000
  C   C49       1.0  0.57252  0.41082  0.34582  1.0000
  C   C50       1.0  0.59379  0.39664  0.35407  1.0000
  C   C51       1.0  0.60772  0.14974  0.36342  1.0000
  C   C52       1.0  0.64311  0.17224  0.35220  1.0000
  C   C53       1.0  0.65730  0.20769  0.36037  1.0000
  H   H28       1.0  0.54765  0.39507  0.32725  1.0000
  H   H29       1.0  0.58374  0.37118  0.34109  1.0000
  H   H30       1.0  0.68301  0.22301  0.35113  1.0000
  H   H31       1.0  0.65908  0.16300  0.33749  1.0000
  C   C54       1.0  0.73499  0.37269  0.38861  1.0000
  C   C55       1.0  0.71670  0.33672  0.38855  1.0000
  C   C56       1.0  0.68070  0.31867  0.38862  1.0000
  C   C57       1.0  0.66302  0.33697  0.38851  1.0000
  C   C58       1.0  0.68097  0.37296  0.38857  1.0000
  C   C59       1.0  0.71694  0.39064  0.38851  1.0000
  H   H32       1.0  0.63687  0.32397  0.38800  1.0000
  H   H33       1.0  0.72970  0.32357  0.38807  1.0000
  H   H34       1.0  0.73009  0.41678  0.38798  1.0000
  C   C60       1.0  0.64791  0.40369  0.38438  1.0000
  C   C61       1.0  0.66428  0.38964  0.38720  1.0000
  C   C62       1.0  0.66402  0.28532  0.38737  1.0000
  C   C63       1.0  0.64995  0.25489  0.38479  1.0000
  C   C64       1.0  0.59462  0.11484  0.35194  1.0000
  C   C65       1.0  0.56311  0.45898  0.35097  1.0000
  H   H35       1.0  0.54159  0.44520  0.31577  1.0000
  H   H36       1.0  0.60850  0.10712  0.31717  1.0000
  C   C66       1.0  0.53539  0.54256  0.46038  1.0000
  C   C67       1.0  0.55413  0.52521  0.46199  1.0000
  C   C68       1.0  0.55083  0.50351  0.38643  1.0000
  H   H37       1.0  0.53729  0.55757  0.51571  1.0000
  N   N4        1.0  0.57448  0.52966  0.53644  1.0000
  H   H38       1.0  0.57649  0.54457  0.58781  1.0000
  H   H39       1.0  0.58776  0.51832  0.54086  1.0000
  N   N5        1.0  0.56861  0.48720  0.38750  1.0000
  C   C69       1.0  0.51145  0.00356  0.46142  1.0000
  C   C70       1.0  0.52873  0.03963  0.46317  1.0000
  C   C71       1.0  0.55007  0.05809  0.38708  1.0000
  H   H40       1.0  0.49671  0.99042  0.51711  1.0000
  N   N6        1.0  0.52459  0.05548  0.53824  1.0000
  H   H41       1.0  0.50994  0.04256  0.58998  1.0000
  H   H42       1.0  0.53592  0.08010  0.54278  1.0000
  N   N7        1.0  0.56633  0.09217  0.38823  1.0000
  C   C72       1.0  0.05015  0.51856  0.46127  1.0000
  H   H43       1.0  0.06328  0.51691  0.51691  1.0000
  C   C73       1.0  0.85404  0.41217  0.39191  1.0000
  H   H44       1.0  0.84457  0.38689  0.40602  1.0000
  C   C74       1.0  0.83189  0.42531  0.37952  1.0000
  C   C75       1.0  0.84595  0.46023  0.35948  1.0000
  H   H45       1.0  0.83061  0.47057  0.34978  1.0000
  C   C76       1.0  0.79878  0.40573  0.38469  1.0000
  C   C77       1.0  0.76836  0.38937  0.38732  1.0000
  C   C78       1.0  0.88958  0.43362  0.38394  1.0000
  H   H46       1.0  0.90486  0.42319  0.39212  1.0000
  H   H47       1.0  0.00141  0.52599  0.25477  1.0000
  C   C79       1.0  0.90395  0.46870  0.36325  1.0000
  C   C80       1.0  0.88141  0.48151  0.35133  1.0000
  H   H48       1.0  0.89062  0.50668  0.33615  1.0000
  C   C81       1.0  0.93885  0.49051  0.35185  1.0000
  H   H49       1.0  0.94657  0.51211  0.31710  1.0000
  C   C82       1.0  0.99562  0.50272  0.38700  1.0000
  N   N8        1.0  0.99821  0.47971  0.53794  1.0000
  H   H50       1.0  0.97359  0.46642  0.54246  1.0000
  N   N9        1.0  0.96154  0.48490  0.38811  1.0000
  C   C83       1.0  0.01398  0.52394  0.31121  1.0000
  C   C84       1.0  0.01407  0.49977  0.46299  1.0000
  H   H51       1.0  0.01113  0.47793  0.58961  1.0000
