data_image0
_chemical_formula_structural       C7H2NHC3H2NHC3H2NHC5H3C2O3C5H3C2O3C3NOCHNHC3NOCHNHC3NOCHNHC7H2NHC3H2NHC3H2NHC5H3C2O3C5H3C2O3C3NOCHNHC3NOCHNHC3NOCHNHC7H2NHC3H2NHC3H2NHC5H3C2O3C5H3C2O3C3NOCHNHC3NOCHNHC3NOCHNHC7H2NHC3H2NHC3H2NHC5H3C2O3C5H3C2O3C3NOCHNHC3NOCHNHC3NOCHNH
_chemical_formula_sum              "C156 H84 N36 O36"
_cell_length_a       43.9069
_cell_length_b       43.9068
_cell_length_c       15.0413
_cell_angle_alpha    90
_cell_angle_beta     90
_cell_angle_gamma    120

_space_group_name_H-M_alt    "P 1"
_space_group_IT_number       1

loop_
  _space_group_symop_operation_xyz
  'x, y, z'

loop_
  _atom_site_type_symbol
  _atom_site_label
  _atom_site_symmetry_multiplicity
  _atom_site_fract_x
  _atom_site_fract_y
  _atom_site_fract_z
  _atom_site_occupancy
  C   C1        1.0  0.18877  0.31892  0.24695  1.0000
  C   C2        1.0  0.21288  0.30659  0.25937  1.0000
  C   C3        1.0  0.30279  0.17253  0.41391  1.0000
  C   C4        1.0  0.27451  0.17932  0.40403  1.0000
  C   C5        1.0  0.22187  0.25755  0.29769  1.0000
  C   C6        1.0  0.21631  0.22448  0.26832  1.0000
  C   C7        1.0  0.23406  0.20850  0.30718  1.0000
  H   H1        1.0  0.23097  0.18616  0.27795  1.0000
  H   H2        1.0  0.20034  0.21240  0.21484  1.0000
  N   N1        1.0  0.20410  0.27208  0.25803  1.0000
  H   H3        1.0  0.18402  0.25646  0.22133  1.0000
  C   C8        1.0  0.23902  0.46363  0.29777  1.0000
  C   C9        1.0  0.27208  0.49114  0.26834  1.0000
  C   C10       1.0  0.28806  0.02487  0.30716  1.0000
  H   H4        1.0  0.31038  0.04412  0.27789  1.0000
  H   H5        1.0  0.28415  0.48725  0.21482  1.0000
  N   N2        1.0  0.22448  0.43133  0.25814  1.0000
  H   H6        1.0  0.24010  0.42686  0.22140  1.0000
  C   C11       1.0  0.03292  0.27467  0.29754  1.0000
  C   C12       1.0  0.00542  0.28025  0.26819  1.0000
  C   C13       1.0  0.47169  0.26251  0.30707  1.0000
  H   H7        1.0  0.45245  0.26561  0.27785  1.0000
  H   H8        1.0  0.00930  0.29622  0.21471  1.0000
  N   N3        1.0  0.06522  0.29246  0.25792  1.0000
  H   H9        1.0  0.06969  0.31254  0.22121  1.0000
  C   C14       1.0  0.17764  0.36916  0.24708  1.0000
  C   C15       1.0  0.14111  0.34462  0.24648  1.0000
  C   C16       1.0  0.12739  0.30778  0.24691  1.0000
  C   C17       1.0  0.15194  0.29580  0.24641  1.0000
  C   C18       1.0  0.20076  0.35546  0.24640  1.0000
  H   H10       1.0  0.14259  0.26945  0.25210  1.0000
  H   H11       1.0  0.22711  0.37245  0.25235  1.0000
  H   H12       1.0  0.12410  0.35396  0.25222  1.0000
  C   C19       1.0  0.18997  0.40559  0.25953  1.0000
  C   C20       1.0  0.09095  0.28367  0.25927  1.0000
  O   O1        1.0  0.24758  0.33065  0.26776  1.0000
  O   O2        1.0  0.16591  0.41623  0.26801  1.0000
  O   O3        1.0  0.08032  0.24897  0.26765  1.0000
  C   C21       1.0  0.32405  0.12959  0.41380  1.0000
  C   C22       1.0  0.35894  0.15826  0.41392  1.0000
  C   C23       1.0  0.36699  0.19379  0.41384  1.0000
  C   C24       1.0  0.33832  0.20000  0.41392  1.0000
  C   C25       1.0  0.29657  0.13763  0.41395  1.0000
  H   H13       1.0  0.34364  0.22536  0.40840  1.0000
  H   H14       1.0  0.27120  0.11760  0.40846  1.0000
  H   H15       1.0  0.37898  0.15294  0.40831  1.0000
  C   C26       1.0  0.31724  0.09452  0.40393  1.0000
  C   C27       1.0  0.40206  0.22205  0.40386  1.0000
  O   O4        1.0  0.24184  0.15186  0.38780  1.0000
  O   O5        1.0  0.34471  0.08930  0.38773  1.0000
  O   O6        1.0  0.40727  0.25473  0.38773  1.0000
  C   C28       1.0  0.25753  0.22422  0.37969  1.0000
  C   C29       1.0  0.26179  0.25650  0.41106  1.0000
  C   C30       1.0  0.24429  0.27224  0.37218  1.0000
  N   N4        1.0  0.25172  0.30027  0.42179  1.0000
  O   O7        1.0  0.28129  0.27509  0.48266  1.0000
  C   C31       1.0  0.27356  0.30154  0.48576  1.0000
  H   H16       1.0  0.28336  0.32060  0.53356  1.0000
  N   N5        1.0  0.27777  0.21165  0.41529  1.0000
  H   H17       1.0  0.29698  0.22778  0.45358  1.0000
  C   C32       1.0  0.27236  0.03263  0.37971  1.0000
  C   C33       1.0  0.24009  0.00461  0.41115  1.0000
  C   C34       1.0  0.22435  0.47136  0.37231  1.0000
  N   N6        1.0  0.19634  0.45076  0.42198  1.0000
  O   O8        1.0  0.22153  0.00553  0.48279  1.0000
  C   C35       1.0  0.19508  0.47133  0.48595  1.0000
  H   H18       1.0  0.17604  0.46207  0.53379  1.0000
  N   N7        1.0  0.28493  0.06544  0.41527  1.0000
  H   H19       1.0  0.26880  0.06852  0.45359  1.0000
  C   C36       1.0  0.46394  0.23905  0.37960  1.0000
  C   C37       1.0  0.49196  0.23478  0.41097  1.0000
  C   C38       1.0  0.02520  0.25228  0.37208  1.0000
  N   N8        1.0  0.04580  0.24485  0.42170  1.0000
  O   O9        1.0  0.49105  0.21530  0.48260  1.0000
  C   C39       1.0  0.02524  0.22303  0.48570  1.0000
  H   H20       1.0  0.03450  0.21324  0.53351  1.0000
  N   N9        1.0  0.43114  0.21882  0.41521  1.0000
  H   H21       1.0  0.42806  0.19961  0.45352  1.0000
  C   C40       1.0  0.18877  0.81892  0.24695  1.0000
  C   C41       1.0  0.21288  0.80659  0.25937  1.0000
  C   C42       1.0  0.30279  0.67253  0.41391  1.0000
  C   C43       1.0  0.27451  0.67932  0.40403  1.0000
  C   C44       1.0  0.22187  0.75755  0.29769  1.0000
  C   C45       1.0  0.21631  0.72448  0.26832  1.0000
  C   C46       1.0  0.23406  0.70850  0.30718  1.0000
  H   H22       1.0  0.23096  0.68616  0.27795  1.0000
  H   H23       1.0  0.20034  0.71239  0.21484  1.0000
  N   N10       1.0  0.20410  0.77208  0.25803  1.0000
  H   H24       1.0  0.18402  0.75646  0.22133  1.0000
  C   C47       1.0  0.23902  0.96363  0.29777  1.0000
  C   C48       1.0  0.27208  0.99114  0.26834  1.0000
  C   C49       1.0  0.28806  0.52487  0.30716  1.0000
  H   H25       1.0  0.31038  0.54412  0.27789  1.0000
  H   H26       1.0  0.28415  0.98725  0.21482  1.0000
  N   N11       1.0  0.22448  0.93133  0.25814  1.0000
  H   H27       1.0  0.24010  0.92686  0.22140  1.0000
  C   C50       1.0  0.03292  0.77467  0.29754  1.0000
  C   C51       1.0  0.00542  0.78025  0.26819  1.0000
  C   C52       1.0  0.47169  0.76251  0.30707  1.0000
  H   H28       1.0  0.45245  0.76561  0.27785  1.0000
  H   H29       1.0  0.00930  0.79622  0.21471  1.0000
  N   N12       1.0  0.06522  0.79246  0.25792  1.0000
  H   H30       1.0  0.06969  0.81254  0.22121  1.0000
  C   C53       1.0  0.17763  0.86916  0.24708  1.0000
  C   C54       1.0  0.14110  0.84461  0.24648  1.0000
  C   C55       1.0  0.12739  0.80778  0.24691  1.0000
  C   C56       1.0  0.15194  0.79580  0.24641  1.0000
  C   C57       1.0  0.20076  0.85545  0.24640  1.0000
  H   H31       1.0  0.14260  0.76945  0.25210  1.0000
  H   H32       1.0  0.22711  0.87245  0.25235  1.0000
  H   H33       1.0  0.12410  0.85396  0.25222  1.0000
  C   C58       1.0  0.18997  0.90559  0.25953  1.0000
  C   C59       1.0  0.09095  0.78367  0.25927  1.0000
  O   O10       1.0  0.24758  0.83065  0.26776  1.0000
  O   O11       1.0  0.16591  0.91623  0.26801  1.0000
  O   O12       1.0  0.08032  0.74897  0.26765  1.0000
  C   C60       1.0  0.32405  0.62959  0.41380  1.0000
  C   C61       1.0  0.35894  0.65826  0.41392  1.0000
  C   C62       1.0  0.36699  0.69378  0.41384  1.0000
  C   C63       1.0  0.33832  0.70000  0.41392  1.0000
  C   C64       1.0  0.29657  0.63763  0.41395  1.0000
  H   H34       1.0  0.34364  0.72537  0.40840  1.0000
  H   H35       1.0  0.27120  0.61760  0.40846  1.0000
  H   H36       1.0  0.37898  0.65294  0.40831  1.0000
  C   C65       1.0  0.31724  0.59452  0.40393  1.0000
  C   C66       1.0  0.40206  0.72205  0.40386  1.0000
  O   O13       1.0  0.24184  0.65186  0.38780  1.0000
  O   O14       1.0  0.34471  0.58930  0.38773  1.0000
  O   O15       1.0  0.40727  0.75473  0.38773  1.0000
  C   C67       1.0  0.25753  0.72422  0.37969  1.0000
  C   C68       1.0  0.26179  0.75650  0.41106  1.0000
  C   C69       1.0  0.24429  0.77224  0.37218  1.0000
  N   N13       1.0  0.25172  0.80027  0.42179  1.0000
  O   O16       1.0  0.28130  0.77509  0.48266  1.0000
  C   C70       1.0  0.27356  0.80154  0.48576  1.0000
  H   H37       1.0  0.28336  0.82061  0.53356  1.0000
  N   N14       1.0  0.27777  0.71165  0.41529  1.0000
  H   H38       1.0  0.29698  0.72778  0.45358  1.0000
  C   C71       1.0  0.27236  0.53263  0.37971  1.0000
  C   C72       1.0  0.24009  0.50461  0.41115  1.0000
  C   C73       1.0  0.22435  0.97136  0.37231  1.0000
  N   N15       1.0  0.19634  0.95076  0.42198  1.0000
  O   O17       1.0  0.22153  0.50553  0.48279  1.0000
  C   C74       1.0  0.19508  0.97133  0.48595  1.0000
  H   H39       1.0  0.17604  0.96207  0.53379  1.0000
  N   N16       1.0  0.28493  0.56544  0.41527  1.0000
  H   H40       1.0  0.26880  0.56852  0.45359  1.0000
  C   C75       1.0  0.46394  0.73905  0.37960  1.0000
  C   C76       1.0  0.49196  0.73478  0.41097  1.0000
  C   C77       1.0  0.02520  0.75228  0.37208  1.0000
  N   N17       1.0  0.04580  0.74485  0.42170  1.0000
  O   O18       1.0  0.49105  0.71530  0.48260  1.0000
  C   C78       1.0  0.02524  0.72303  0.48570  1.0000
  H   H41       1.0  0.03450  0.71324  0.53351  1.0000
  N   N18       1.0  0.43113  0.71882  0.41521  1.0000
  H   H42       1.0  0.42806  0.69961  0.45352  1.0000
  C   C79       1.0  0.68877  0.31892  0.24695  1.0000
  C   C80       1.0  0.71288  0.30659  0.25937  1.0000
  C   C81       1.0  0.80279  0.17253  0.41391  1.0000
  C   C82       1.0  0.77451  0.17932  0.40403  1.0000
  C   C83       1.0  0.72187  0.25755  0.29769  1.0000
  C   C84       1.0  0.71631  0.22448  0.26832  1.0000
  C   C85       1.0  0.73406  0.20850  0.30718  1.0000
  H   H43       1.0  0.73097  0.18616  0.27795  1.0000
  H   H44       1.0  0.70034  0.21240  0.21484  1.0000
  N   N19       1.0  0.70410  0.27208  0.25803  1.0000
  H   H45       1.0  0.68402  0.25646  0.22133  1.0000
  C   C86       1.0  0.73902  0.46363  0.29777  1.0000
  C   C87       1.0  0.77208  0.49114  0.26834  1.0000
  C   C88       1.0  0.78806  0.02487  0.30716  1.0000
  H   H46       1.0  0.81038  0.04412  0.27789  1.0000
  H   H47       1.0  0.78415  0.48725  0.21482  1.0000
  N   N20       1.0  0.72449  0.43133  0.25814  1.0000
  H   H48       1.0  0.74009  0.42686  0.22140  1.0000
  C   C89       1.0  0.53292  0.27467  0.29754  1.0000
  C   C90       1.0  0.50542  0.28025  0.26819  1.0000
  C   C91       1.0  0.97169  0.26251  0.30707  1.0000
  H   H49       1.0  0.95245  0.26561  0.27785  1.0000
  H   H50       1.0  0.50931  0.29622  0.21471  1.0000
  N   N21       1.0  0.56522  0.29246  0.25792  1.0000
  H   H51       1.0  0.56969  0.31254  0.22121  1.0000
  C   C92       1.0  0.67764  0.36916  0.24708  1.0000
  C   C93       1.0  0.64111  0.34462  0.24648  1.0000
  C   C94       1.0  0.62739  0.30778  0.24691  1.0000
  C   C95       1.0  0.65194  0.29580  0.24641  1.0000
  C   C96       1.0  0.70076  0.35546  0.24640  1.0000
  H   H52       1.0  0.64260  0.26945  0.25210  1.0000
  H   H53       1.0  0.72711  0.37245  0.25235  1.0000
  H   H54       1.0  0.62410  0.35396  0.25222  1.0000
  C   C97       1.0  0.68997  0.40559  0.25953  1.0000
  C   C98       1.0  0.59095  0.28367  0.25927  1.0000
  O   O19       1.0  0.74758  0.33065  0.26776  1.0000
  O   O20       1.0  0.66591  0.41623  0.26801  1.0000
  O   O21       1.0  0.58032  0.24897  0.26765  1.0000
  C   C99       1.0  0.82405  0.12959  0.41380  1.0000
  C   C100      1.0  0.85894  0.15826  0.41392  1.0000
  C   C101      1.0  0.86699  0.19379  0.41384  1.0000
  C   C102      1.0  0.83832  0.20000  0.41392  1.0000
  C   C103      1.0  0.79657  0.13763  0.41395  1.0000
  H   H55       1.0  0.84364  0.22536  0.40840  1.0000
  H   H56       1.0  0.77120  0.11760  0.40846  1.0000
  H   H57       1.0  0.87898  0.15294  0.40831  1.0000
  C   C104      1.0  0.81724  0.09452  0.40393  1.0000
  C   C105      1.0  0.90206  0.22205  0.40386  1.0000
  O   O22       1.0  0.74184  0.15186  0.38780  1.0000
  O   O23       1.0  0.84471  0.08930  0.38773  1.0000
  O   O24       1.0  0.90727  0.25473  0.38773  1.0000
  C   C106      1.0  0.75753  0.22422  0.37969  1.0000
  C   C107      1.0  0.76179  0.25650  0.41106  1.0000
  C   C108      1.0  0.74429  0.27224  0.37218  1.0000
  N   N22       1.0  0.75172  0.30027  0.42179  1.0000
  O   O25       1.0  0.78129  0.27509  0.48266  1.0000
  C   C109      1.0  0.77356  0.30154  0.48576  1.0000
  H   H58       1.0  0.78336  0.32060  0.53356  1.0000
  N   N23       1.0  0.77777  0.21165  0.41529  1.0000
  H   H59       1.0  0.79698  0.22778  0.45358  1.0000
  C   C110      1.0  0.77236  0.03263  0.37971  1.0000
  C   C111      1.0  0.74009  0.00461  0.41115  1.0000
  C   C112      1.0  0.72435  0.47136  0.37231  1.0000
  N   N24       1.0  0.69634  0.45076  0.42198  1.0000
  O   O26       1.0  0.72152  0.00553  0.48279  1.0000
  C   C113      1.0  0.69508  0.47133  0.48595  1.0000
  H   H60       1.0  0.67604  0.46207  0.53379  1.0000
  N   N25       1.0  0.78493  0.06544  0.41527  1.0000
  H   H61       1.0  0.76880  0.06852  0.45359  1.0000
  C   C114      1.0  0.96394  0.23905  0.37960  1.0000
  C   C115      1.0  0.99196  0.23478  0.41097  1.0000
  C   C116      1.0  0.52520  0.25228  0.37208  1.0000
  N   N26       1.0  0.54580  0.24485  0.42170  1.0000
  O   O27       1.0  0.99105  0.21530  0.48260  1.0000
  C   C117      1.0  0.52524  0.22303  0.48570  1.0000
  H   H62       1.0  0.53451  0.21324  0.53351  1.0000
  N   N27       1.0  0.93114  0.21882  0.41521  1.0000
  H   H63       1.0  0.92806  0.19961  0.45352  1.0000
  C   C118      1.0  0.68877  0.81892  0.24695  1.0000
  C   C119      1.0  0.71288  0.80659  0.25937  1.0000
  C   C120      1.0  0.80279  0.67253  0.41391  1.0000
  C   C121      1.0  0.77451  0.67932  0.40403  1.0000
  C   C122      1.0  0.72187  0.75755  0.29769  1.0000
  C   C123      1.0  0.71631  0.72448  0.26832  1.0000
  C   C124      1.0  0.73406  0.70850  0.30718  1.0000
  H   H64       1.0  0.73096  0.68616  0.27795  1.0000
  H   H65       1.0  0.70034  0.71239  0.21484  1.0000
  N   N28       1.0  0.70410  0.77208  0.25803  1.0000
  H   H66       1.0  0.68402  0.75646  0.22133  1.0000
  C   C125      1.0  0.73902  0.96363  0.29777  1.0000
  C   C126      1.0  0.77208  0.99114  0.26834  1.0000
  C   C127      1.0  0.78806  0.52487  0.30716  1.0000
  H   H67       1.0  0.81038  0.54412  0.27789  1.0000
  H   H68       1.0  0.78415  0.98725  0.21482  1.0000
  N   N29       1.0  0.72449  0.93133  0.25814  1.0000
  H   H69       1.0  0.74010  0.92686  0.22140  1.0000
  C   C128      1.0  0.53292  0.77467  0.29754  1.0000
  C   C129      1.0  0.50542  0.78025  0.26819  1.0000
  C   C130      1.0  0.97169  0.76251  0.30707  1.0000
  H   H70       1.0  0.95245  0.76561  0.27785  1.0000
  H   H71       1.0  0.50930  0.79622  0.21471  1.0000
  N   N30       1.0  0.56522  0.79246  0.25792  1.0000
  H   H72       1.0  0.56969  0.81254  0.22121  1.0000
  C   C131      1.0  0.67763  0.86916  0.24708  1.0000
  C   C132      1.0  0.64110  0.84461  0.24648  1.0000
  C   C133      1.0  0.62739  0.80778  0.24691  1.0000
  C   C134      1.0  0.65194  0.79580  0.24641  1.0000
  C   C135      1.0  0.70076  0.85545  0.24640  1.0000
  H   H73       1.0  0.64259  0.76945  0.25210  1.0000
  H   H74       1.0  0.72711  0.87245  0.25235  1.0000
  H   H75       1.0  0.62409  0.85396  0.25222  1.0000
  C   C136      1.0  0.68997  0.90559  0.25953  1.0000
  C   C137      1.0  0.59095  0.78367  0.25927  1.0000
  O   O28       1.0  0.74758  0.83065  0.26776  1.0000
  O   O29       1.0  0.66591  0.91623  0.26801  1.0000
  O   O30       1.0  0.58032  0.74897  0.26765  1.0000
  C   C138      1.0  0.82405  0.62959  0.41380  1.0000
  C   C139      1.0  0.85894  0.65826  0.41392  1.0000
  C   C140      1.0  0.86699  0.69378  0.41384  1.0000
  C   C141      1.0  0.83832  0.70000  0.41392  1.0000
  C   C142      1.0  0.79657  0.63763  0.41395  1.0000
  H   H76       1.0  0.84364  0.72537  0.40840  1.0000
  H   H77       1.0  0.77120  0.61760  0.40846  1.0000
  H   H78       1.0  0.87898  0.65294  0.40831  1.0000
  C   C143      1.0  0.81724  0.59452  0.40393  1.0000
  C   C144      1.0  0.90206  0.72205  0.40386  1.0000
  O   O31       1.0  0.74184  0.65186  0.38780  1.0000
  O   O32       1.0  0.84471  0.58930  0.38773  1.0000
  O   O33       1.0  0.90727  0.75473  0.38773  1.0000
  C   C145      1.0  0.75753  0.72422  0.37969  1.0000
  C   C146      1.0  0.76179  0.75650  0.41106  1.0000
  C   C147      1.0  0.74429  0.77224  0.37218  1.0000
  N   N31       1.0  0.75172  0.80027  0.42179  1.0000
  O   O34       1.0  0.78129  0.77509  0.48266  1.0000
  C   C148      1.0  0.77356  0.80154  0.48576  1.0000
  H   H79       1.0  0.78336  0.82061  0.53356  1.0000
  N   N32       1.0  0.77777  0.71165  0.41529  1.0000
  H   H80       1.0  0.79698  0.72778  0.45358  1.0000
  C   C149      1.0  0.77236  0.53263  0.37971  1.0000
  C   C150      1.0  0.74009  0.50461  0.41115  1.0000
  C   C151      1.0  0.72435  0.97136  0.37231  1.0000
  N   N33       1.0  0.69634  0.95076  0.42198  1.0000
  O   O35       1.0  0.72152  0.50553  0.48279  1.0000
  C   C152      1.0  0.69508  0.97133  0.48595  1.0000
  H   H81       1.0  0.67604  0.96207  0.53379  1.0000
  N   N34       1.0  0.78493  0.56544  0.41527  1.0000
  H   H82       1.0  0.76880  0.56852  0.45359  1.0000
  C   C153      1.0  0.96394  0.73905  0.37960  1.0000
  C   C154      1.0  0.99196  0.73478  0.41097  1.0000
  C   C155      1.0  0.52520  0.75228  0.37208  1.0000
  N   N35       1.0  0.54580  0.74485  0.42170  1.0000
  O   O36       1.0  0.99105  0.71530  0.48260  1.0000
  C   C156      1.0  0.52524  0.72303  0.48570  1.0000
  H   H83       1.0  0.53450  0.71324  0.53351  1.0000
  N   N36       1.0  0.93113  0.71882  0.41521  1.0000
  H   H84       1.0  0.92806  0.69961  0.45352  1.0000
