data_image0
_chemical_formula_structural       C16H16CNC2OH3NCNC2OH3NC3NC3NC5NC5NC36H26C4H4NC2HN2C2HN
_chemical_formula_sum              "C82 H54 N12 O2"
_cell_length_a       34.1333
_cell_length_b       34.1333
_cell_length_c       14.5946
_cell_angle_alpha    90
_cell_angle_beta     90
_cell_angle_gamma    89.8311

_space_group_name_H-M_alt    "P 1"
_space_group_IT_number       1

loop_
  _space_group_symop_operation_xyz
  'x, y, z'

loop_
  _atom_site_type_symbol
  _atom_site_label
  _atom_site_symmetry_multiplicity
  _atom_site_fract_x
  _atom_site_fract_y
  _atom_site_fract_z
  _atom_site_occupancy
  C   C1        1.0  0.01043  0.22255  0.30163  1.0000
  C   C2        1.0  0.00934  0.18128  0.29886  1.0000
  C   C3        1.0  0.99226  0.30902  0.33783  1.0000
  C   C4        1.0  0.99407  0.35024  0.34363  1.0000
  C   C5        1.0  0.22041  0.01493  0.30371  1.0000
  C   C6        1.0  0.17915  0.01644  0.30043  1.0000
  C   C7        1.0  0.34783  0.03165  0.34846  1.0000
  C   C8        1.0  0.30663  0.03301  0.34115  1.0000
  C   C9        1.0  0.01216  0.84707  0.30042  1.0000
  C   C10       1.0  0.01140  0.80580  0.30396  1.0000
  C   C11       1.0  0.03069  0.67845  0.34481  1.0000
  C   C12       1.0  0.03142  0.71966  0.33754  1.0000
  C   C13       1.0  0.84466  0.01154  0.29971  1.0000
  C   C14       1.0  0.80339  0.01245  0.30290  1.0000
  C   C15       1.0  0.71742  0.99322  0.34010  1.0000
  C   C16       1.0  0.67618  0.99439  0.34631  1.0000
  H   H1        1.0  0.66028  0.97400  0.31092  1.0000
  H   H2        1.0  0.73004  0.97185  0.30069  1.0000
  H   H3        1.0  0.78826  0.01000  0.24267  1.0000
  H   H4        1.0  0.85833  0.00793  0.23784  1.0000
  H   H5        1.0  0.01367  0.86068  0.23803  1.0000
  H   H6        1.0  0.01186  0.79062  0.24352  1.0000
  H   H7        1.0  0.16555  0.02009  0.23850  1.0000
  H   H8        1.0  0.23560  0.01709  0.24349  1.0000
  H   H9        1.0  0.29431  0.05448  0.30149  1.0000
  H   H10       1.0  0.36404  0.05199  0.31367  1.0000
  H   H11       1.0  0.00600  0.16753  0.23704  1.0000
  H   H12       1.0  0.00835  0.23759  0.24118  1.0000
  H   H13       1.0  0.97394  0.36651  0.30807  1.0000
  H   H14       1.0  0.97070  0.29677  0.29856  1.0000
  H   H15       1.0  0.05126  0.73209  0.29386  1.0000
  H   H16       1.0  0.04981  0.66234  0.30596  1.0000
  C   C17       1.0  0.01279  0.47310  0.35019  1.0000
  N   N1        1.0  0.00364  0.53553  0.28015  1.0000
  C   C18       1.0  0.00373  0.49572  0.27121  1.0000
  C   C19       1.0  0.99352  0.48038  0.17896  1.0000
  O   O1        1.0  0.99774  0.43905  0.16490  1.0000
  H   H17       1.0  0.01104  0.49565  0.12734  1.0000
  H   H18       1.0  0.96284  0.48760  0.16603  1.0000
  H   H19       1.0  0.02593  0.43280  0.16443  1.0000
  N   N2        1.0  0.01276  0.43399  0.34958  1.0000
  C   C20       1.0  0.55305  0.01186  0.35247  1.0000
  N   N3        1.0  0.49093  0.00266  0.28126  1.0000
  C   C21       1.0  0.53076  0.00275  0.27309  1.0000
  C   C22       1.0  0.54645  0.99253  0.18111  1.0000
  O   O2        1.0  0.58785  0.99642  0.16794  1.0000
  H   H20       1.0  0.53141  0.01021  0.12927  1.0000
  H   H21       1.0  0.53924  0.96192  0.16786  1.0000
  H   H22       1.0  0.59415  0.02456  0.16745  1.0000
  N   N4        1.0  0.59215  0.01217  0.35232  1.0000
  C   C23       1.0  0.91106  0.08831  0.37785  1.0000
  C   C24       1.0  0.93993  0.11657  0.37804  1.0000
  C   C25       1.0  0.97636  0.09777  0.37708  1.0000
  N   N5        1.0  0.96812  0.05889  0.37650  1.0000
  C   C26       1.0  0.92907  0.05148  0.37739  1.0000
  C   C27       1.0  0.90886  0.01500  0.37792  1.0000
  C   C28       1.0  0.92742  0.97767  0.37814  1.0000
  N   N6        1.0  0.96625  0.96962  0.37735  1.0000
  C   C29       1.0  0.97353  0.93064  0.37871  1.0000
  C   C30       1.0  0.93690  0.91249  0.38027  1.0000
  C   C31       1.0  0.90854  0.94143  0.38015  1.0000
  C   C32       1.0  0.01047  0.91131  0.37875  1.0000
  C   C33       1.0  0.04736  0.93071  0.37824  1.0000
  N   N7        1.0  0.05560  0.96959  0.37783  1.0000
  C   C34       1.0  0.09465  0.97698  0.37830  1.0000
  C   C35       1.0  0.11265  0.94015  0.37844  1.0000
  C   C36       1.0  0.08378  0.91189  0.37865  1.0000
  C   C37       1.0  0.11487  0.01345  0.37850  1.0000
  C   C38       1.0  0.09631  0.05079  0.37810  1.0000
  N   N8        1.0  0.05748  0.05886  0.37728  1.0000
  C   C39       1.0  0.05021  0.09784  0.37779  1.0000
  C   C40       1.0  0.08685  0.11596  0.37870  1.0000
  C   C41       1.0  0.11520  0.08702  0.37924  1.0000
  C   C42       1.0  0.01325  0.11719  0.37756  1.0000
  C   C43       1.0  0.01336  0.15906  0.37999  1.0000
  C   C44       1.0  0.01824  0.17906  0.46387  1.0000
  C   C45       1.0  0.01955  0.22026  0.46628  1.0000
  C   C46       1.0  0.01595  0.24292  0.38525  1.0000
  C   C47       1.0  0.01835  0.28486  0.38817  1.0000
  C   C48       1.0  0.02226  0.36887  0.39974  1.0000
  C   C49       1.0  0.04872  0.34479  0.44889  1.0000
  C   C50       1.0  0.04688  0.30370  0.44298  1.0000
  C   C51       1.0  0.15673  0.01255  0.38127  1.0000
  C   C52       1.0  0.17652  0.00734  0.46534  1.0000
  C   C53       1.0  0.21772  0.00566  0.46826  1.0000
  C   C54       1.0  0.24059  0.00921  0.38757  1.0000
  C   C55       1.0  0.28254  0.00687  0.39118  1.0000
  C   C56       1.0  0.30149  0.97865  0.44705  1.0000
  C   C57       1.0  0.34257  0.97728  0.45461  1.0000
  C   C58       1.0  0.36647  0.00385  0.40582  1.0000
  C   C59       1.0  0.01040  0.86947  0.38170  1.0000
  C   C60       1.0  0.00859  0.78560  0.38857  1.0000
  C   C61       1.0  0.00720  0.80849  0.46964  1.0000
  C   C62       1.0  0.00809  0.84969  0.46644  1.0000
  C   C63       1.0  0.00690  0.74362  0.39257  1.0000
  C   C64       1.0  0.98093  0.72451  0.45355  1.0000
  C   C65       1.0  0.98021  0.68343  0.46109  1.0000
  C   C66       1.0  0.00518  0.65965  0.40721  1.0000
  C   C67       1.0  0.86700  0.01583  0.38055  1.0000
  C   C68       1.0  0.84711  0.02085  0.46456  1.0000
  C   C69       1.0  0.80589  0.02196  0.46739  1.0000
  C   C70       1.0  0.78311  0.01794  0.38670  1.0000
  C   C71       1.0  0.74113  0.01970  0.39014  1.0000
  C   C72       1.0  0.65705  0.02225  0.40269  1.0000
  C   C73       1.0  0.68065  0.04907  0.45167  1.0000
  C   C74       1.0  0.72177  0.04788  0.44528  1.0000
  H   H23       1.0  0.66809  0.06980  0.49316  1.0000
  H   H24       1.0  0.73751  0.06814  0.48144  1.0000
  H   H25       1.0  0.79262  0.02519  0.52982  1.0000
  H   H26       1.0  0.86253  0.02379  0.52433  1.0000
  H   H27       1.0  0.88169  0.09423  0.37860  1.0000
  H   H28       1.0  0.93464  0.14606  0.37904  1.0000
  H   H29       1.0  0.98784  0.03876  0.37604  1.0000
  H   H30       1.0  0.03589  0.98972  0.37802  1.0000
  H   H31       1.0  0.87905  0.93637  0.38161  1.0000
  H   H32       1.0  0.93125  0.88311  0.38167  1.0000
  H   H33       1.0  0.00692  0.86518  0.52647  1.0000
  H   H34       1.0  0.00599  0.79531  0.53254  1.0000
  H   H35       1.0  0.08905  0.88240  0.37909  1.0000
  H   H36       1.0  0.14202  0.93420  0.37854  1.0000
  H   H37       1.0  0.09253  0.14534  0.37920  1.0000
  H   H38       1.0  0.14470  0.09207  0.38033  1.0000
  H   H39       1.0  0.16104  0.00460  0.52508  1.0000
  H   H40       1.0  0.23091  0.00230  0.53073  1.0000
  H   H41       1.0  0.35488  0.95678  0.49714  1.0000
  H   H42       1.0  0.28547  0.95868  0.48339  1.0000
  H   H43       1.0  0.06689  0.28760  0.47930  1.0000
  H   H44       1.0  0.06966  0.35698  0.49024  1.0000
  H   H45       1.0  0.02286  0.23362  0.52856  1.0000
  H   H46       1.0  0.02114  0.16372  0.52379  1.0000
  H   H47       1.0  0.96210  0.74041  0.49361  1.0000
  H   H48       1.0  0.96133  0.67103  0.50725  1.0000
  C   C75       1.0  0.02363  0.40934  0.41150  1.0000
  C   C76       1.0  0.40672  0.00373  0.42049  1.0000
  C   C77       1.0  0.00568  0.61935  0.42129  1.0000
  C   C78       1.0  0.61657  0.02307  0.41456  1.0000
  H   H49       1.0  0.03439  0.41958  0.47020  1.0000
  H   H50       1.0  0.60612  0.03365  0.47331  1.0000
  H   H51       1.0  0.00054  0.60964  0.48445  1.0000
  H   H52       1.0  0.41629  0.99728  0.48315  1.0000
  N   N9        1.0  0.02117  0.49290  0.42883  1.0000
  C   C79       1.0  0.02119  0.53247  0.43624  1.0000
  C   C80       1.0  0.01168  0.55529  0.35870  1.0000
  H   H53       1.0  0.02828  0.54495  0.49757  1.0000
  N   N10       1.0  0.01080  0.59434  0.35626  1.0000
  N   N11       1.0  0.53293  0.02019  0.43078  1.0000
  C   C81       1.0  0.49333  0.02010  0.43748  1.0000
  C   C82       1.0  0.47086  0.01064  0.35946  1.0000
  H   H54       1.0  0.48055  0.02718  0.49853  1.0000
  N   N12       1.0  0.43183  0.00998  0.35630  1.0000
