data_image0
_chemical_formula_structural       CHC2OHCNCNC2HOHC2HCHC3HOHC3HOHC3HOHC3HOHC3HOHC3HOHC3H2C3H2C3H2C3H2C3H2C3H2C2OHC3HOHC3HOHCHC3HOHC3HOHNCNC2NCNCNCNCNCNCNCNCNCNCNCNCNCNCNCNCNCNCNCNCNCNCNCNCNCNCNCNCNCN2CNC4H2C3H2C3H2C3H2C3H2C3H2C4HOHC3HOHC3HOHC3HOHC3HOHCHC3H2C3H2C2HC3H2C3H2
_chemical_formula_sum              "C144 H72 O18 N36"
_cell_length_a       39.2337
_cell_length_b       39.2338
_cell_length_c       14.8121
_cell_angle_alpha    90
_cell_angle_beta     90
_cell_angle_gamma    120

_space_group_name_H-M_alt    "P 1"
_space_group_IT_number       1

loop_
  _space_group_symop_operation_xyz
  'x, y, z'

loop_
  _atom_site_type_symbol
  _atom_site_label
  _atom_site_symmetry_multiplicity
  _atom_site_fract_x
  _atom_site_fract_y
  _atom_site_fract_z
  _atom_site_occupancy
  C   C1        1.0  0.03741  0.38252  0.28029  1.0000
  H   H1        1.0  0.05204  0.38659  0.22049  1.0000
  C   C2        1.0  0.05686  0.67653  0.35783  1.0000
  C   C3        1.0  0.03556  0.67588  0.27982  1.0000
  O   O1        1.0  0.05397  0.68933  0.19897  1.0000
  H   H2        1.0  0.06637  0.71815  0.20121  1.0000
  C   C4        1.0  0.09725  0.43548  0.34996  1.0000
  N   N1        1.0  0.10056  0.47148  0.35445  1.0000
  C   C5        1.0  0.09563  0.68291  0.35018  1.0000
  N   N2        1.0  0.09908  0.65029  0.35430  1.0000
  C   C6        1.0  0.10284  0.57978  0.38778  1.0000
  C   C7        1.0  0.10355  0.54428  0.38583  1.0000
  H   H3        1.0  0.07932  0.51947  0.40933  1.0000
  O   O2        1.0  0.06947  0.57759  0.42137  1.0000
  H   H4        1.0  0.07512  0.58600  0.48480  1.0000
  C   C8        1.0  0.05863  0.40299  0.35817  1.0000
  C   C9        1.0  0.03710  0.40002  0.43720  1.0000
  H   H5        1.0  0.05122  0.41670  0.49273  1.0000
  C   C10       1.0  0.03555  0.65801  0.43714  1.0000
  H   H6        1.0  0.04981  0.65569  0.49267  1.0000
  C   C11       1.0  0.20291  0.46584  0.32500  1.0000
  C   C12       1.0  0.23924  0.49961  0.30071  1.0000
  C   C13       1.0  0.27480  0.49887  0.30289  1.0000
  H   H7        1.0  0.30014  0.52418  0.28639  1.0000
  O   O3        1.0  0.24215  0.53446  0.27654  1.0000
  H   H8        1.0  0.23533  0.53211  0.21206  1.0000
  C   C14       1.0  0.56845  0.75864  0.32488  1.0000
  C   C15       1.0  0.53469  0.76120  0.30052  1.0000
  C   C16       1.0  0.53543  0.79750  0.30268  1.0000
  H   H9        1.0  0.51013  0.79754  0.28616  1.0000
  O   O4        1.0  0.49984  0.72926  0.27634  1.0000
  H   H10       1.0  0.50220  0.72478  0.21187  1.0000
  C   C17       1.0  0.27562  0.83133  0.32507  1.0000
  C   C18       1.0  0.27305  0.79502  0.30065  1.0000
  C   C19       1.0  0.23675  0.75946  0.30279  1.0000
  H   H11       1.0  0.23671  0.73412  0.28625  1.0000
  O   O5        1.0  0.30500  0.79210  0.27650  1.0000
  H   H12       1.0  0.30949  0.79894  0.21204  1.0000
  C   C20       1.0  0.82837  0.57135  0.32494  1.0000
  C   C21       1.0  0.79205  0.53758  0.30064  1.0000
  C   C22       1.0  0.75649  0.53832  0.30278  1.0000
  H   H13       1.0  0.73115  0.51301  0.28631  1.0000
  O   O6        1.0  0.78913  0.50272  0.27653  1.0000
  H   H14       1.0  0.79595  0.50504  0.21205  1.0000
  C   C23       1.0  0.46285  0.27853  0.32496  1.0000
  C   C24       1.0  0.49661  0.27596  0.30063  1.0000
  C   C25       1.0  0.49587  0.23966  0.30284  1.0000
  H   H15       1.0  0.52117  0.23962  0.28635  1.0000
  O   O7        1.0  0.53147  0.30790  0.27650  1.0000
  H   H16       1.0  0.52914  0.31238  0.21202  1.0000
  C   C26       1.0  0.75563  0.20581  0.32501  1.0000
  C   C27       1.0  0.75818  0.24214  0.30073  1.0000
  C   C28       1.0  0.79448  0.27770  0.30290  1.0000
  H   H17       1.0  0.79451  0.30305  0.28643  1.0000
  O   O8        1.0  0.72623  0.24506  0.27667  1.0000
  H   H18       1.0  0.72174  0.23826  0.21219  1.0000
  C   C29       1.0  0.13646  0.54240  0.35311  1.0000
  C   C30       1.0  0.16938  0.57804  0.32409  1.0000
  C   C31       1.0  0.16869  0.61366  0.32453  1.0000
  H   H19       1.0  0.19269  0.63831  0.29974  1.0000
  H   H20       1.0  0.19378  0.57821  0.29914  1.0000
  C   C32       1.0  0.49187  0.61564  0.35312  1.0000
  C   C33       1.0  0.45623  0.61291  0.32411  1.0000
  C   C34       1.0  0.42061  0.57661  0.32461  1.0000
  H   H21       1.0  0.39594  0.57597  0.29992  1.0000
  H   H22       1.0  0.45605  0.63715  0.29927  1.0000
  C   C35       1.0  0.41864  0.89778  0.35313  1.0000
  C   C36       1.0  0.42137  0.86487  0.32407  1.0000
  C   C37       1.0  0.45768  0.86556  0.32449  1.0000
  H   H23       1.0  0.45832  0.84153  0.29986  1.0000
  H   H24       1.0  0.39713  0.84044  0.29931  1.0000
  C   C38       1.0  0.89482  0.49478  0.35306  1.0000
  C   C39       1.0  0.86189  0.45914  0.32410  1.0000
  C   C40       1.0  0.86257  0.42351  0.32455  1.0000
  H   H25       1.0  0.83856  0.39886  0.29981  1.0000
  H   H26       1.0  0.83748  0.45896  0.29921  1.0000
  C   C41       1.0  0.53942  0.42156  0.35293  1.0000
  C   C42       1.0  0.57507  0.42428  0.32399  1.0000
  C   C43       1.0  0.61068  0.46059  0.32440  1.0000
  H   H27       1.0  0.63536  0.46122  0.29985  1.0000
  H   H28       1.0  0.57526  0.40003  0.29928  1.0000
  C   C44       1.0  0.61261  0.13935  0.35309  1.0000
  C   C45       1.0  0.60989  0.17227  0.32414  1.0000
  C   C46       1.0  0.57357  0.17157  0.32453  1.0000
  H   H29       1.0  0.57294  0.19560  0.29991  1.0000
  H   H30       1.0  0.63412  0.19668  0.29927  1.0000
  C   C47       1.0  0.97436  0.36059  0.35769  1.0000
  C   C48       1.0  0.99575  0.36123  0.27984  1.0000
  O   O9        1.0  0.97737  0.34771  0.19899  1.0000
  H   H31       1.0  0.96498  0.31889  0.20136  1.0000
  C   C49       1.0  0.67356  0.63529  0.35756  1.0000
  C   C50       1.0  0.67276  0.65582  0.27942  1.0000
  C   C51       1.0  0.65154  0.67627  0.27993  1.0000
  H   H32       1.0  0.64727  0.68660  0.22002  1.0000
  O   O10       1.0  0.68605  0.65073  0.19850  1.0000
  H   H33       1.0  0.71488  0.66713  0.20048  1.0000
  C   C52       1.0  0.39885  0.05979  0.35786  1.0000
  C   C53       1.0  0.37810  0.03841  0.27999  1.0000
  C   C54       1.0  0.35765  0.99674  0.28054  1.0000
  H   H34       1.0  0.34715  0.98213  0.22070  1.0000
  O   O11       1.0  0.38294  0.05685  0.19925  1.0000
  H   H35       1.0  0.36631  0.06902  0.20156  1.0000
  C   C55       1.0  0.99389  0.65464  0.28027  1.0000
  H   H36       1.0  0.97927  0.65048  0.22042  1.0000
  C   C56       1.0  0.35775  0.40193  0.35784  1.0000
  C   C57       1.0  0.35842  0.38131  0.27974  1.0000
  C   C58       1.0  0.37964  0.36086  0.28012  1.0000
  H   H37       1.0  0.38371  0.35037  0.22023  1.0000
  O   O12       1.0  0.34487  0.38626  0.19903  1.0000
  H   H38       1.0  0.31607  0.36963  0.20124  1.0000
  C   C59       1.0  0.63241  0.97738  0.35771  1.0000
  C   C60       1.0  0.65310  0.99871  0.27976  1.0000
  C   C61       1.0  0.67355  0.04037  0.28028  1.0000
  H   H39       1.0  0.68404  0.05502  0.22048  1.0000
  O   O13       1.0  0.64822  0.98025  0.19902  1.0000
  H   H40       1.0  0.66482  0.96805  0.20130  1.0000
  N   N3        1.0  0.13072  0.43352  0.33868  1.0000
  C   C62       1.0  0.16689  0.46686  0.33199  1.0000
  N   N4        1.0  0.16797  0.50215  0.33727  1.0000
  C   C63       1.0  0.13540  0.50553  0.34824  1.0000
  C   C64       1.0  0.59880  0.68333  0.34981  1.0000
  N   N5        1.0  0.60076  0.71875  0.33856  1.0000
  C   C65       1.0  0.56742  0.72159  0.33194  1.0000
  N   N6        1.0  0.53213  0.68739  0.33724  1.0000
  C   C66       1.0  0.52874  0.65143  0.34820  1.0000
  N   N7        1.0  0.56279  0.65064  0.35437  1.0000
  C   C67       1.0  0.35092  0.93698  0.35019  1.0000
  N   N8        1.0  0.31551  0.90352  0.33886  1.0000
  C   C68       1.0  0.31267  0.86735  0.33213  1.0000
  N   N9        1.0  0.34689  0.86627  0.33735  1.0000
  C   C69       1.0  0.38283  0.89884  0.34834  1.0000
  N   N10       1.0  0.38362  0.93367  0.35462  1.0000
  C   C70       1.0  0.93403  0.60170  0.34997  1.0000
  N   N11       1.0  0.90057  0.60366  0.33866  1.0000
  C   C71       1.0  0.86439  0.57032  0.33197  1.0000
  N   N12       1.0  0.86332  0.53503  0.33724  1.0000
  C   C72       1.0  0.89588  0.53165  0.34821  1.0000
  N   N13       1.0  0.93071  0.56569  0.35443  1.0000
  C   C73       1.0  0.43250  0.35383  0.34988  1.0000
  N   N14       1.0  0.43055  0.31841  0.33864  1.0000
  C   C74       1.0  0.46389  0.31558  0.33197  1.0000
  N   N15       1.0  0.49918  0.34980  0.33720  1.0000
  C   C75       1.0  0.50256  0.38575  0.34811  1.0000
  N   N16       1.0  0.46850  0.38653  0.35430  1.0000
  C   C76       1.0  0.68034  0.10015  0.34999  1.0000
  N   N17       1.0  0.71575  0.13362  0.33872  1.0000
  C   C77       1.0  0.71858  0.16979  0.33205  1.0000
  N   N18       1.0  0.68436  0.17086  0.33729  1.0000
  C   C78       1.0  0.64841  0.13829  0.34824  1.0000
  N   N19       1.0  0.64764  0.10346  0.35445  1.0000
  C   C79       1.0  0.43126  0.09854  0.35031  1.0000
  N   N20       1.0  0.42917  0.13197  0.34030  1.0000
  C   C80       1.0  0.46253  0.16812  0.33434  1.0000
  N   N21       1.0  0.49793  0.16937  0.33918  1.0000
  C   C81       1.0  0.50142  0.13681  0.34949  1.0000
  N   N22       1.0  0.46733  0.10198  0.35435  1.0000
  C   C82       1.0  0.67995  0.60291  0.34993  1.0000
  N   N23       1.0  0.71548  0.60501  0.34001  1.0000
  C   C83       1.0  0.71827  0.57166  0.33409  1.0000
  N   N24       1.0  0.68412  0.53626  0.33895  1.0000
  C   C84       1.0  0.64806  0.53276  0.34924  1.0000
  N   N25       1.0  0.64733  0.56685  0.35404  1.0000
  C   C85       1.0  0.93561  0.35424  0.35011  1.0000
  N   N26       1.0  0.90218  0.31871  0.34015  1.0000
  C   C86       1.0  0.86604  0.31592  0.33421  1.0000
  N   N27       1.0  0.86478  0.35007  0.33909  1.0000
  C   C87       1.0  0.89734  0.38612  0.34940  1.0000
  N   N28       1.0  0.93217  0.38686  0.35422  1.0000
  C   C88       1.0  0.60000  0.93862  0.35013  1.0000
  N   N29       1.0  0.60210  0.90519  0.34013  1.0000
  C   C89       1.0  0.56875  0.86904  0.33419  1.0000
  N   N30       1.0  0.53334  0.86778  0.33907  1.0000
  C   C90       1.0  0.52984  0.90033  0.34942  1.0000
  N   N31       1.0  0.56393  0.93516  0.35425  1.0000
  C   C91       1.0  0.35135  0.43430  0.35024  1.0000
  N   N32       1.0  0.31582  0.43219  0.34025  1.0000
  C   C92       1.0  0.31302  0.46554  0.33432  1.0000
  N   N33       1.0  0.34716  0.50095  0.33920  1.0000
  C   C93       1.0  0.38322  0.50446  0.34954  1.0000
  N   N34       1.0  0.38396  0.47037  0.35437  1.0000
  N   N35       1.0  0.12906  0.71844  0.34019  1.0000
  C   C94       1.0  0.16520  0.72124  0.33423  1.0000
  N   N36       1.0  0.16647  0.68710  0.33911  1.0000
  C   C95       1.0  0.13392  0.65104  0.34944  1.0000
  C   C96       1.0  0.27614  0.46465  0.32714  1.0000
  C   C97       1.0  0.23978  0.43056  0.34712  1.0000
  C   C98       1.0  0.20411  0.43120  0.34634  1.0000
  H   H41       1.0  0.17898  0.40609  0.36482  1.0000
  H   H42       1.0  0.23902  0.40510  0.36594  1.0000
  C   C99       1.0  0.56964  0.83306  0.32697  1.0000
  C   C100      1.0  0.60374  0.83079  0.34697  1.0000
  C   C101      1.0  0.60309  0.79448  0.34622  1.0000
  H   H43       1.0  0.62817  0.79444  0.36492  1.0000
  H   H44       1.0  0.62916  0.85547  0.36602  1.0000
  C   C102      1.0  0.20119  0.75811  0.32706  1.0000
  C   C103      1.0  0.20346  0.79447  0.34712  1.0000
  C   C104      1.0  0.23978  0.83014  0.34643  1.0000
  H   H45       1.0  0.23982  0.85526  0.36500  1.0000
  H   H46       1.0  0.17877  0.79522  0.36603  1.0000
  C   C105      1.0  0.75514  0.57254  0.32698  1.0000
  C   C106      1.0  0.79151  0.60665  0.34688  1.0000
  C   C107      1.0  0.82717  0.60599  0.34623  1.0000
  H   H47       1.0  0.85230  0.63109  0.36474  1.0000
  H   H48       1.0  0.79226  0.63209  0.36580  1.0000
  C   C108      1.0  0.46165  0.20411  0.32713  1.0000
  C   C109      1.0  0.42755  0.20638  0.34707  1.0000
  C   C110      1.0  0.42821  0.24270  0.34631  1.0000
  H   H49       1.0  0.40312  0.24273  0.36495  1.0000
  H   H50       1.0  0.40212  0.18170  0.36609  1.0000
  C   C111      1.0  0.83005  0.27905  0.32708  1.0000
  C   C112      1.0  0.82778  0.24269  0.34707  1.0000
  C   C113      1.0  0.79147  0.20701  0.34633  1.0000
  H   H51       1.0  0.79145  0.18189  0.36482  1.0000
  H   H52       1.0  0.85248  0.24193  0.36588  1.0000
  C   C114      1.0  0.13520  0.61527  0.35454  1.0000
  C   C115      1.0  0.41900  0.54151  0.35462  1.0000
  C   C116      1.0  0.45449  0.54463  0.38779  1.0000
  C   C117      1.0  0.48999  0.58084  0.38579  1.0000
  H   H53       1.0  0.51481  0.58141  0.40924  1.0000
  O   O14       1.0  0.45668  0.51344  0.42130  1.0000
  H   H54       1.0  0.44830  0.51068  0.48475  1.0000
  C   C118      1.0  0.49278  0.89905  0.35451  1.0000
  C   C119      1.0  0.48966  0.93142  0.38770  1.0000
  C   C120      1.0  0.45344  0.93070  0.38578  1.0000
  H   H55       1.0  0.45287  0.95494  0.40927  1.0000
  O   O15       1.0  0.52085  0.96479  0.42126  1.0000
  H   H56       1.0  0.52360  0.95916  0.48470  1.0000
  C   C121      1.0  0.89607  0.42190  0.35449  1.0000
  C   C122      1.0  0.92845  0.45739  0.38765  1.0000
  C   C123      1.0  0.92774  0.49290  0.38570  1.0000
  H   H57       1.0  0.95199  0.51771  0.40915  1.0000
  O   O16       1.0  0.96183  0.45958  0.42116  1.0000
  H   H58       1.0  0.95621  0.45121  0.48461  1.0000
  C   C124      1.0  0.61228  0.49570  0.35431  1.0000
  C   C125      1.0  0.57678  0.49258  0.38740  1.0000
  C   C126      1.0  0.54128  0.45637  0.38545  1.0000
  H   H59       1.0  0.51646  0.45581  0.40885  1.0000
  O   O17       1.0  0.57457  0.52379  0.42079  1.0000
  H   H60       1.0  0.58292  0.52656  0.48427  1.0000
  C   C127      1.0  0.53848  0.13808  0.35455  1.0000
  C   C128      1.0  0.54160  0.10570  0.38769  1.0000
  C   C129      1.0  0.57781  0.10642  0.38571  1.0000
  H   H61       1.0  0.57838  0.08217  0.40916  1.0000
  O   O18       1.0  0.51041  0.07232  0.42122  1.0000
  H   H62       1.0  0.50766  0.07794  0.48468  1.0000
  C   C130      1.0  0.99572  0.37923  0.43691  1.0000
  H   H63       1.0  0.98146  0.38160  0.49239  1.0000
  C   C131      1.0  0.63128  0.67717  0.35806  1.0000
  C   C132      1.0  0.63436  0.65878  0.43722  1.0000
  C   C133      1.0  0.65515  0.63820  0.43695  1.0000
  H   H64       1.0  0.65306  0.62179  0.49264  1.0000
  H   H65       1.0  0.61794  0.65653  0.49303  1.0000
  C   C134      1.0  0.35705  0.97562  0.35843  1.0000
  C   C135      1.0  0.37563  0.99710  0.43747  1.0000
  C   C136      1.0  0.39618  0.03848  0.43717  1.0000
  H   H66       1.0  0.41289  0.05280  0.49251  1.0000
  H   H67       1.0  0.37826  0.98299  0.49294  1.0000
  C   C137      1.0  0.97266  0.63419  0.35817  1.0000
  C   C138      1.0  0.99417  0.63716  0.43724  1.0000
  H   H68       1.0  0.97999  0.62059  0.49285  1.0000
  C   C139      1.0  0.40000  0.35996  0.35803  1.0000
  C   C140      1.0  0.39708  0.37850  0.43716  1.0000
  C   C141      1.0  0.37631  0.39910  0.43706  1.0000
  H   H69       1.0  0.37850  0.41557  0.49272  1.0000
  H   H70       1.0  0.41356  0.38079  0.49287  1.0000
  C   C142      1.0  0.67421  0.06152  0.35821  1.0000
  C   C143      1.0  0.65568  0.04005  0.43731  1.0000
  C   C144      1.0  0.63512  0.99867  0.43706  1.0000
  H   H71       1.0  0.61843  0.98435  0.49244  1.0000
  H   H72       1.0  0.65310  0.05418  0.49279  1.0000
