data_image0
_chemical_formula_structural       C17H12C17H12C3HCH3C3HCH3C3HCH3C13H9C13H9C3HCH3C3HCH3C3HCH3
_chemical_formula_sum              "C84 H66"
_cell_length_a       37.3686
_cell_length_b       37.3432
_cell_length_c       14.8444
_cell_angle_alpha    90
_cell_angle_beta     90
_cell_angle_gamma    120.036

_space_group_name_H-M_alt    "P 1"
_space_group_IT_number       1

loop_
  _space_group_symop_operation_xyz
  'x, y, z'

loop_
  _atom_site_type_symbol
  _atom_site_label
  _atom_site_symmetry_multiplicity
  _atom_site_fract_x
  _atom_site_fract_y
  _atom_site_fract_z
  _atom_site_occupancy
  C   C1        1.0  0.47930  0.89267  0.34134  1.0000
  C   C2        1.0  0.45530  0.84917  0.34358  1.0000
  C   C3        1.0  0.39146  0.75863  0.30387  1.0000
  C   C4        1.0  0.36633  0.71579  0.31066  1.0000
  C   C5        1.0  0.32266  0.69653  0.31030  1.0000
  C   C6        1.0  0.29720  0.65295  0.31074  1.0000
  C   C7        1.0  0.31644  0.62852  0.30990  1.0000
  C   C8        1.0  0.35999  0.64667  0.31032  1.0000
  C   C9        1.0  0.38444  0.69037  0.30983  1.0000
  C   C10       1.0  0.37767  0.62153  0.30356  1.0000
  C   C11       1.0  0.42801  0.60158  0.34610  1.0000
  C   C12       1.0  0.40442  0.55782  0.34429  1.0000
  C   C13       1.0  0.42388  0.53382  0.34216  1.0000
  C   C14       1.0  0.25436  0.63530  0.30434  1.0000
  C   C15       1.0  0.18403  0.58463  0.34571  1.0000
  C   C16       1.0  0.15920  0.54105  0.34095  1.0000
  C   C17       1.0  0.11577  0.52173  0.33894  1.0000
  H   H1        1.0  0.51084  0.90636  0.34012  1.0000
  H   H2        1.0  0.47014  0.83241  0.34490  1.0000
  H   H3        1.0  0.41600  0.70394  0.30668  1.0000
  H   H4        1.0  0.30913  0.71457  0.30755  1.0000
  H   H5        1.0  0.29844  0.59694  0.30682  1.0000
  H   H6        1.0  0.40600  0.50224  0.34198  1.0000
  H   H7        1.0  0.37283  0.54297  0.34649  1.0000
  H   H8        1.0  0.09873  0.49012  0.33677  1.0000
  H   H9        1.0  0.17253  0.52287  0.33967  1.0000
  H   H10       1.0  0.36537  0.59865  0.25876  1.0000
  H   H11       1.0  0.41416  0.76922  0.25867  1.0000
  H   H12       1.0  0.24378  0.64812  0.26091  1.0000
  C   C18       1.0  0.53665  0.11769  0.33330  1.0000
  C   C19       1.0  0.56032  0.16116  0.33824  1.0000
  C   C20       1.0  0.62440  0.25201  0.30452  1.0000
  C   C21       1.0  0.64944  0.29481  0.31204  1.0000
  C   C22       1.0  0.69311  0.31405  0.31177  1.0000
  C   C23       1.0  0.71855  0.35763  0.31230  1.0000
  C   C24       1.0  0.69933  0.38208  0.31146  1.0000
  C   C25       1.0  0.65579  0.36392  0.31186  1.0000
  C   C26       1.0  0.63132  0.32022  0.31126  1.0000
  C   C27       1.0  0.63808  0.38898  0.30432  1.0000
  C   C28       1.0  0.58802  0.40932  0.34692  1.0000
  C   C29       1.0  0.61126  0.45294  0.33865  1.0000
  C   C30       1.0  0.59151  0.47663  0.33381  1.0000
  C   C31       1.0  0.76134  0.37533  0.30510  1.0000
  C   C32       1.0  0.83180  0.42577  0.34655  1.0000
  C   C33       1.0  0.85649  0.46943  0.34697  1.0000
  C   C34       1.0  0.89990  0.48899  0.34248  1.0000
  H   H13       1.0  0.50518  0.10390  0.32791  1.0000
  H   H14       1.0  0.54531  0.17776  0.33677  1.0000
  H   H15       1.0  0.59976  0.30666  0.30794  1.0000
  H   H16       1.0  0.70662  0.29601  0.30882  1.0000
  H   H17       1.0  0.71735  0.41366  0.30820  1.0000
  H   H18       1.0  0.60922  0.50813  0.32905  1.0000
  H   H19       1.0  0.64288  0.46799  0.33776  1.0000
  H   H20       1.0  0.91682  0.52062  0.34310  1.0000
  H   H21       1.0  0.84307  0.48748  0.35094  1.0000
  H   H22       1.0  0.64977  0.41109  0.25771  1.0000
  H   H23       1.0  0.60246  0.24158  0.25757  1.0000
  H   H24       1.0  0.77177  0.36310  0.25981  1.0000
  C   C35       1.0  0.52785  0.48131  0.33530  1.0000
  C   C36       1.0  0.52791  0.50424  0.25864  1.0000
  C   C37       1.0  0.50784  0.52778  0.26461  1.0000
  H   H25       1.0  0.50755  0.54402  0.20916  1.0000
  C   C38       1.0  0.54672  0.50409  0.17025  1.0000
  H   H26       1.0  0.55937  0.48342  0.16834  1.0000
  H   H27       1.0  0.57165  0.53528  0.15472  1.0000
  H   H28       1.0  0.52339  0.49415  0.11730  1.0000
  C   C39       1.0  0.53189  0.04926  0.33556  1.0000
  C   C40       1.0  0.50904  0.02637  0.25884  1.0000
  C   C41       1.0  0.48546  0.98271  0.26481  1.0000
  H   H29       1.0  0.46926  0.96617  0.20935  1.0000
  C   C42       1.0  0.50932  0.04533  0.17035  1.0000
  H   H30       1.0  0.53008  0.07866  0.16837  1.0000
  H   H31       1.0  0.47820  0.03916  0.15466  1.0000
  H   H32       1.0  0.51922  0.03184  0.11753  1.0000
  C   C43       1.0  0.96387  0.48536  0.33564  1.0000
  C   C44       1.0  0.98665  0.48499  0.25920  1.0000
  C   C45       1.0  0.03027  0.50504  0.26515  1.0000
  H   H33       1.0  0.04673  0.50517  0.20975  1.0000
  C   C46       1.0  0.96757  0.46576  0.17116  1.0000
  H   H34       1.0  0.93419  0.45279  0.16959  1.0000
  H   H35       1.0  0.97403  0.44096  0.15595  1.0000
  H   H36       1.0  0.98070  0.48896  0.11784  1.0000
  C   C47       1.0  0.46024  0.91717  0.34294  1.0000
  C   C48       1.0  0.41159  0.82899  0.34679  1.0000
  C   C49       1.0  0.39269  0.85372  0.34760  1.0000
  C   C50       1.0  0.41664  0.89718  0.34512  1.0000
  C   C51       1.0  0.38710  0.78615  0.35446  1.0000
  C   C52       1.0  0.40972  0.62610  0.35372  1.0000
  C   C53       1.0  0.47163  0.62051  0.34571  1.0000
  C   C54       1.0  0.46746  0.55291  0.34265  1.0000
  C   C55       1.0  0.49111  0.59656  0.34334  1.0000
  C   C56       1.0  0.22680  0.60268  0.35314  1.0000
  C   C57       1.0  0.16404  0.60833  0.34850  1.0000
  C   C58       1.0  0.09589  0.54543  0.34303  1.0000
  C   C59       1.0  0.12058  0.58901  0.34666  1.0000
  H   H37       1.0  0.40202  0.91416  0.34699  1.0000
  H   H38       1.0  0.36120  0.84027  0.35080  1.0000
  H   H39       1.0  0.18092  0.63987  0.35384  1.0000
  H   H40       1.0  0.48973  0.65205  0.34789  1.0000
  H   H41       1.0  0.52272  0.61122  0.34439  1.0000
  H   H42       1.0  0.10703  0.60697  0.34970  1.0000
  H   H43       1.0  0.42207  0.64908  0.39827  1.0000
  H   H44       1.0  0.36427  0.77549  0.39938  1.0000
  H   H45       1.0  0.23732  0.58975  0.39643  1.0000
  C   C60       1.0  0.55581  0.09330  0.33740  1.0000
  C   C61       1.0  0.60387  0.18155  0.34749  1.0000
  C   C62       1.0  0.62286  0.15696  0.35261  1.0000
  C   C63       1.0  0.59921  0.11352  0.34770  1.0000
  C   C64       1.0  0.62804  0.22440  0.35632  1.0000
  C   C65       1.0  0.60665  0.38514  0.35571  1.0000
  C   C66       1.0  0.54443  0.39027  0.35123  1.0000
  C   C67       1.0  0.54793  0.45740  0.33709  1.0000
  C   C68       1.0  0.52468  0.41393  0.34644  1.0000
  C   C69       1.0  0.78901  0.40737  0.35514  1.0000
  C   C70       1.0  0.85200  0.40227  0.34240  1.0000
  C   C71       1.0  0.91991  0.46544  0.33728  1.0000
  C   C72       1.0  0.89543  0.42183  0.33774  1.0000
  H   H46       1.0  0.61397  0.09672  0.35175  1.0000
  H   H47       1.0  0.65421  0.17049  0.36029  1.0000
  H   H48       1.0  0.83528  0.37065  0.34430  1.0000
  H   H49       1.0  0.52656  0.35887  0.35822  1.0000
  H   H50       1.0  0.49310  0.39912  0.34988  1.0000
  H   H51       1.0  0.90911  0.40397  0.33586  1.0000
  H   H52       1.0  0.59490  0.36278  0.40180  1.0000
  H   H53       1.0  0.65024  0.23502  0.40273  1.0000
  H   H54       1.0  0.77851  0.41969  0.40004  1.0000
  C   C73       1.0  0.48730  0.52883  0.34373  1.0000
  C   C74       1.0  0.48725  0.50597  0.42043  1.0000
  C   C75       1.0  0.50742  0.48253  0.41451  1.0000
  H   H55       1.0  0.50778  0.46642  0.47012  1.0000
  C   C76       1.0  0.46820  0.50591  0.50866  1.0000
  H   H56       1.0  0.45493  0.52606  0.51014  1.0000
  H   H57       1.0  0.49155  0.51635  0.56165  1.0000
  H   H58       1.0  0.44366  0.47457  0.52444  1.0000
  C   C77       1.0  0.48434  0.96112  0.34398  1.0000
  C   C78       1.0  0.50715  0.98394  0.42073  1.0000
  C   C79       1.0  0.53058  0.02758  0.41482  1.0000
  H   H59       1.0  0.54664  0.04405  0.47049  1.0000
  C   C80       1.0  0.50720  0.96490  0.50891  1.0000
  H   H60       1.0  0.48716  0.93143  0.51024  1.0000
  H   H61       1.0  0.49664  0.97771  0.56189  1.0000
  H   H62       1.0  0.53854  0.97182  0.52482  1.0000
  C   C81       1.0  0.05193  0.52564  0.34420  1.0000
  C   C82       1.0  0.02913  0.52581  0.42084  1.0000
  C   C83       1.0  0.98553  0.50588  0.41476  1.0000
  H   H63       1.0  0.96906  0.50566  0.47024  1.0000
  C   C84       1.0  0.04807  0.54458  0.50932  1.0000
  H   H64       1.0  0.08138  0.55718  0.51141  1.0000
  H   H65       1.0  0.03456  0.52122  0.56222  1.0000
  H   H66       1.0  0.04191  0.56957  0.52482  1.0000
