data_image0
_chemical_formula_structural       C5H2C8HC3H3N2C3O2H2CHC3O2H2CHC3O2H2CHC3O2H2CHC3O2H2CHC3O2H2CHN2C8HC7HCH4N4C8HC7HCH4N4C3OHOHCHC3OHOHCHC3OHOHCHC3OHOHCHC3OHOHCHC3OHOHCH
_chemical_formula_sum              "C96 H54 N12 O24"
_cell_length_a       32.457
_cell_length_b       32.457
_cell_length_c       14.9241
_cell_angle_alpha    89.9996
_cell_angle_beta     90.0004
_cell_angle_gamma    120

_space_group_name_H-M_alt    "P 1"
_space_group_IT_number       1

loop_
  _space_group_symop_operation_xyz
  'x, y, z'

loop_
  _atom_site_type_symbol
  _atom_site_label
  _atom_site_symmetry_multiplicity
  _atom_site_fract_x
  _atom_site_fract_y
  _atom_site_fract_z
  _atom_site_occupancy
  C   C1        1.0  0.04097  0.52857  0.35421  1.0000
  C   C2        1.0  0.03668  0.45107  0.35444  1.0000
  C   C3        1.0  0.06435  0.50116  0.35370  1.0000
  C   C4        1.0  0.06846  0.57947  0.35197  1.0000
  C   C5        1.0  0.04423  0.60551  0.35285  1.0000
  H   H1        1.0  0.05244  0.43058  0.35325  1.0000
  H   H2        1.0  0.06261  0.64189  0.35102  1.0000
  C   C6        1.0  0.99008  0.50492  0.35418  1.0000
  C   C7        1.0  0.96260  0.45403  0.35197  1.0000
  C   C8        1.0  0.91216  0.43053  0.34451  1.0000
  C   C9        1.0  0.89060  0.45908  0.34516  1.0000
  C   C10       1.0  0.91640  0.50892  0.34975  1.0000
  C   C11       1.0  0.96671  0.53234  0.35355  1.0000
  C   C12       1.0  0.98683  0.42799  0.35295  1.0000
  C   C13       1.0  0.99438  0.58243  0.35420  1.0000
  H   H3        1.0  0.85449  0.44298  0.34915  1.0000
  C   C14       1.0  0.11465  0.52457  0.34998  1.0000
  C   C15       1.0  0.14045  0.57442  0.34538  1.0000
  C   C16       1.0  0.11890  0.60296  0.34458  1.0000
  H   H4        1.0  0.17656  0.59053  0.34945  1.0000
  H   H5        1.0  0.96845  0.39161  0.35116  1.0000
  H   H6        1.0  0.97862  0.60291  0.35302  1.0000
  N   N1        1.0  0.88469  0.38199  0.33796  1.0000
  N   N2        1.0  0.14637  0.65150  0.33797  1.0000
  C   C17       1.0  0.30524  0.51488  0.31707  1.0000
  C   C18       1.0  0.28599  0.54224  0.28117  1.0000
  C   C19       1.0  0.23758  0.52856  0.29290  1.0000
  O   O1        1.0  0.31324  0.58227  0.23156  1.0000
  O   O2        1.0  0.22096  0.55432  0.24917  1.0000
  H   H7        1.0  0.32705  0.60904  0.27405  1.0000
  H   H8        1.0  0.23787  0.58689  0.27323  1.0000
  C   C20       1.0  0.35487  0.53285  0.30964  1.0000
  H   H9        1.0  0.37384  0.56480  0.27794  1.0000
  C   C21       1.0  0.51750  0.80833  0.31690  1.0000
  C   C22       1.0  0.49018  0.76175  0.28084  1.0000
  C   C23       1.0  0.50386  0.72702  0.29255  1.0000
  O   O3        1.0  0.45020  0.74901  0.23108  1.0000
  O   O4        1.0  0.47819  0.68471  0.24854  1.0000
  H   H10       1.0  0.42338  0.73596  0.27346  1.0000
  H   H11       1.0  0.44560  0.66897  0.27249  1.0000
  C   C24       1.0  0.49951  0.83998  0.30955  1.0000
  H   H12       1.0  0.46757  0.82700  0.27780  1.0000
  C   C25       1.0  0.22394  0.72708  0.31694  1.0000
  C   C26       1.0  0.27053  0.74633  0.28090  1.0000
  C   C27       1.0  0.30528  0.79474  0.29261  1.0000
  O   O5        1.0  0.28327  0.71908  0.23121  1.0000
  O   O6        1.0  0.34759  0.81135  0.24864  1.0000
  H   H13       1.0  0.29629  0.70529  0.27363  1.0000
  H   H14       1.0  0.36331  0.79449  0.27265  1.0000
  C   C28       1.0  0.19228  0.67745  0.30959  1.0000
  H   H15       1.0  0.20525  0.65848  0.27787  1.0000
  C   C29       1.0  0.72587  0.51865  0.31692  1.0000
  C   C30       1.0  0.74513  0.49133  0.28082  1.0000
  C   C31       1.0  0.79355  0.50503  0.29246  1.0000
  O   O7        1.0  0.71789  0.45135  0.23108  1.0000
  O   O8        1.0  0.81019  0.47935  0.24850  1.0000
  H   H16       1.0  0.70411  0.42453  0.27346  1.0000
  H   H17       1.0  0.79333  0.44675  0.27247  1.0000
  C   C32       1.0  0.67624  0.50067  0.30954  1.0000
  H   H18       1.0  0.65727  0.46873  0.27781  1.0000
  C   C33       1.0  0.51365  0.22515  0.31702  1.0000
  C   C34       1.0  0.54101  0.27176  0.28111  1.0000
  C   C35       1.0  0.52733  0.30649  0.29281  1.0000
  O   O9        1.0  0.58104  0.28454  0.23150  1.0000
  O   O10       1.0  0.55309  0.34887  0.24907  1.0000
  H   H19       1.0  0.60782  0.29750  0.27399  1.0000
  H   H20       1.0  0.58566  0.36453  0.27310  1.0000
  C   C36       1.0  0.53162  0.19348  0.30963  1.0000
  H   H21       1.0  0.56357  0.20647  0.27794  1.0000
  C   C37       1.0  0.80713  0.30639  0.31699  1.0000
  C   C38       1.0  0.76054  0.28712  0.28095  1.0000
  C   C39       1.0  0.72580  0.23870  0.29269  1.0000
  O   O11       1.0  0.74779  0.31434  0.23118  1.0000
  O   O12       1.0  0.68349  0.22207  0.24870  1.0000
  H   H22       1.0  0.73476  0.32814  0.27356  1.0000
  H   H23       1.0  0.66776  0.23893  0.27267  1.0000
  C   C40       1.0  0.83878  0.35602  0.30958  1.0000
  H   H24       1.0  0.82581  0.37498  0.27780  1.0000
  N   N3        1.0  0.88892  0.52945  0.34939  1.0000
  N   N4        1.0  0.14213  0.50404  0.34977  1.0000
  C   C41       1.0  0.52738  0.50313  0.35414  1.0000
  C   C42       1.0  0.57828  0.52653  0.35191  1.0000
  C   C43       1.0  0.60175  0.49958  0.34450  1.0000
  C   C44       1.0  0.57320  0.44948  0.34527  1.0000
  C   C45       1.0  0.52336  0.42544  0.34987  1.0000
  C   C46       1.0  0.49996  0.45234  0.35359  1.0000
  C   C47       1.0  0.60433  0.57680  0.35281  1.0000
  C   C48       1.0  0.44987  0.42993  0.35430  1.0000
  H   H25       1.0  0.58930  0.42947  0.34935  1.0000
  C   C49       1.0  0.50375  0.53039  0.35414  1.0000
  C   C50       1.0  0.53117  0.58118  0.35355  1.0000
  C   C51       1.0  0.50777  0.60808  0.34982  1.0000
  C   C52       1.0  0.45792  0.58404  0.34529  1.0000
  C   C53       1.0  0.42937  0.53394  0.34454  1.0000
  C   C54       1.0  0.45285  0.50698  0.35196  1.0000
  C   C55       1.0  0.58126  0.60358  0.35418  1.0000
  H   H26       1.0  0.44184  0.60407  0.34925  1.0000
  C   C56       1.0  0.42680  0.45672  0.35288  1.0000
  H   H27       1.0  0.60175  0.63983  0.35308  1.0000
  H   H28       1.0  0.64071  0.59479  0.35102  1.0000
  H   H29       1.0  0.39042  0.43872  0.35109  1.0000
  H   H30       1.0  0.42937  0.39369  0.35314  1.0000
  N   N5        1.0  0.50281  0.37743  0.34966  1.0000
  N   N6        1.0  0.65029  0.52064  0.33792  1.0000
  N   N7        1.0  0.38083  0.51288  0.33797  1.0000
  N   N8        1.0  0.52831  0.65610  0.34947  1.0000
  C   C57       1.0  0.52918  0.04217  0.35429  1.0000
  C   C58       1.0  0.50577  0.06966  0.35203  1.0000
  C   C59       1.0  0.53272  0.12010  0.34461  1.0000
  C   C60       1.0  0.58283  0.14165  0.34541  1.0000
  C   C61       1.0  0.60686  0.11584  0.34994  1.0000
  C   C62       1.0  0.57997  0.06554  0.35372  1.0000
  C   C63       1.0  0.45550  0.04544  0.35293  1.0000
  C   C64       1.0  0.60238  0.03786  0.35439  1.0000
  H   H31       1.0  0.60283  0.17776  0.34931  1.0000
  C   C65       1.0  0.50192  0.99128  0.35428  1.0000
  C   C66       1.0  0.45113  0.96790  0.35366  1.0000
  C   C67       1.0  0.42424  0.91760  0.34986  1.0000
  C   C68       1.0  0.44828  0.89180  0.34537  1.0000
  C   C69       1.0  0.49838  0.91335  0.34460  1.0000
  C   C70       1.0  0.52533  0.96378  0.35207  1.0000
  C   C71       1.0  0.42872  0.99559  0.35432  1.0000
  H   H32       1.0  0.42827  0.85568  0.34917  1.0000
  C   C72       1.0  0.57560  0.98801  0.35301  1.0000
  H   H33       1.0  0.39248  0.97984  0.35305  1.0000
  H   H34       1.0  0.43751  0.06382  0.35103  1.0000
  H   H35       1.0  0.59360  0.96963  0.35111  1.0000
  H   H36       1.0  0.63862  0.05361  0.35318  1.0000
  N   N9        1.0  0.65488  0.14332  0.34961  1.0000
  N   N10       1.0  0.51166  0.14757  0.33799  1.0000
  N   N11       1.0  0.51945  0.88589  0.33796  1.0000
  N   N12       1.0  0.37622  0.89012  0.34948  1.0000
  C   C73       1.0  0.20600  0.48610  0.33943  1.0000
  C   C74       1.0  0.22461  0.45729  0.37072  1.0000
  C   C75       1.0  0.27364  0.47209  0.36227  1.0000
  O   O13       1.0  0.28956  0.44389  0.39757  1.0000
  H   H37       1.0  0.29772  0.45380  0.46040  1.0000
  O   O14       1.0  0.19651  0.41646  0.41709  1.0000
  H   H38       1.0  0.18399  0.39063  0.37268  1.0000
  C   C76       1.0  0.15759  0.47245  0.35423  1.0000
  H   H39       1.0  0.13418  0.43934  0.37814  1.0000
  C   C77       1.0  0.54629  0.73787  0.33917  1.0000
  C   C78       1.0  0.57506  0.78527  0.37063  1.0000
  C   C79       1.0  0.56023  0.81948  0.36225  1.0000
  O   O15       1.0  0.58838  0.86357  0.39776  1.0000
  H   H40       1.0  0.57839  0.86174  0.46055  1.0000
  O   O16       1.0  0.61582  0.79796  0.41719  1.0000
  H   H41       1.0  0.64172  0.81131  0.37289  1.0000
  C   C80       1.0  0.55997  0.70313  0.35383  1.0000
  H   H42       1.0  0.59300  0.71275  0.37807  1.0000
  C   C81       1.0  0.29443  0.82633  0.33918  1.0000
  C   C82       1.0  0.24703  0.80773  0.37062  1.0000
  C   C83       1.0  0.21281  0.75869  0.36224  1.0000
  O   O17       1.0  0.16872  0.74277  0.39770  1.0000
  H   H43       1.0  0.17052  0.73461  0.46050  1.0000
  O   O18       1.0  0.23435  0.83583  0.41710  1.0000
  H   H44       1.0  0.22102  0.84837  0.37275  1.0000
  C   C84       1.0  0.32919  0.87475  0.35384  1.0000
  H   H45       1.0  0.31958  0.89817  0.37806  1.0000
  C   C85       1.0  0.82513  0.54744  0.33910  1.0000
  C   C86       1.0  0.80651  0.57622  0.37057  1.0000
  C   C87       1.0  0.75747  0.56139  0.36220  1.0000
  O   O19       1.0  0.74154  0.58955  0.39768  1.0000
  H   H46       1.0  0.73338  0.57958  0.46048  1.0000
  O   O20       1.0  0.83460  0.61700  0.41707  1.0000
  H   H47       1.0  0.84714  0.64288  0.37275  1.0000
  C   C88       1.0  0.87355  0.56111  0.35377  1.0000
  H   H48       1.0  0.89696  0.59413  0.37804  1.0000
  C   C89       1.0  0.48488  0.29562  0.33934  1.0000
  C   C90       1.0  0.45606  0.24820  0.37065  1.0000
  C   C91       1.0  0.47087  0.21398  0.36222  1.0000
  O   O21       1.0  0.44266  0.16986  0.39754  1.0000
  H   H49       1.0  0.45257  0.17161  0.46037  1.0000
  O   O22       1.0  0.41524  0.23549  0.41702  1.0000
  H   H50       1.0  0.38940  0.22216  0.37260  1.0000
  C   C92       1.0  0.47122  0.33038  0.35412  1.0000
  H   H51       1.0  0.43812  0.32069  0.37803  1.0000
  C   C93       1.0  0.73666  0.20714  0.33932  1.0000
  C   C94       1.0  0.78406  0.22577  0.37077  1.0000
  C   C95       1.0  0.81827  0.27480  0.36236  1.0000
  O   O23       1.0  0.86236  0.29075  0.39784  1.0000
  H   H52       1.0  0.86055  0.29893  0.46063  1.0000
  O   O24       1.0  0.79675  0.19770  0.41733  1.0000
  H   H53       1.0  0.81010  0.18515  0.37304  1.0000
  C   C96       1.0  0.70192  0.15871  0.35400  1.0000
  H   H54       1.0  0.71154  0.13531  0.37825  1.0000
