data_image0
_chemical_formula_structural       CHNC2H4CH4CN3HCN3HCN2HC29H17C3O3C29H17C3O3C3HCH3NHC3HCH3NHC2H3NH
_chemical_formula_sum              "C81 H60 N12 O6"
_cell_length_a       44.8843
_cell_length_b       44.8842
_cell_length_c       14.976
_cell_angle_alpha    90
_cell_angle_beta     90
_cell_angle_gamma    120

_space_group_name_H-M_alt    "P 1"
_space_group_IT_number       1

loop_
  _space_group_symop_operation_xyz
  'x, y, z'

loop_
  _atom_site_type_symbol
  _atom_site_label
  _atom_site_symmetry_multiplicity
  _atom_site_fract_x
  _atom_site_fract_y
  _atom_site_fract_z
  _atom_site_occupancy
  C   C1        1.0  0.01573  0.50137  0.44531  1.0000
  H   H1        1.0  0.01018  0.48890  0.58561  1.0000
  N   N1        1.0  0.02125  0.51778  0.29258  1.0000
  C   C2        1.0  0.03010  0.50139  0.53477  1.0000
  C   C3        1.0  0.40988  0.85564  0.34339  1.0000
  H   H2        1.0  0.39888  0.87080  0.34765  1.0000
  H   H3        1.0  0.36252  0.81008  0.35971  1.0000
  H   H4        1.0  0.47353  0.60315  0.34750  1.0000
  H   H5        1.0  0.13119  0.52850  0.34767  1.0000
  C   C4        1.0  0.59422  0.14600  0.34262  1.0000
  H   H6        1.0  0.60468  0.13033  0.34391  1.0000
  H   H7        1.0  0.64262  0.19072  0.33049  1.0000
  H   H8        1.0  0.52726  0.39734  0.34400  1.0000
  H   H9        1.0  0.87168  0.47473  0.34397  1.0000
  C   C5        1.0  0.51697  0.48081  0.34960  1.0000
  N   N2        1.0  0.48425  0.50390  0.29249  1.0000
  N   N3        1.0  0.49956  0.48584  0.28264  1.0000
  N   N4        1.0  0.53163  0.46086  0.33385  1.0000
  H   H10       1.0  0.52036  0.44291  0.28895  1.0000
  C   C6        1.0  0.52122  0.03656  0.34959  1.0000
  N   N5        1.0  0.49810  0.98074  0.29252  1.0000
  N   N6        1.0  0.51617  0.01411  0.28265  1.0000
  N   N7        1.0  0.54118  0.07117  0.33383  1.0000
  H   H11       1.0  0.55912  0.07785  0.28889  1.0000
  C   C7        1.0  0.96544  0.48501  0.34960  1.0000
  N   N8        1.0  0.98789  0.50246  0.28270  1.0000
  N   N9        1.0  0.93083  0.47036  0.33385  1.0000
  H   H12       1.0  0.92415  0.48164  0.28897  1.0000
  C   C8        1.0  0.44571  0.87045  0.32910  1.0000
  C   C9        1.0  0.45913  0.84797  0.32051  1.0000
  C   C10       1.0  0.43766  0.81209  0.32752  1.0000
  C   C11       1.0  0.40186  0.79743  0.34156  1.0000
  C   C12       1.0  0.38833  0.81976  0.34981  1.0000
  C   C13       1.0  0.38004  0.76209  0.34948  1.0000
  C   C14       1.0  0.37984  0.73882  0.29249  1.0000
  C   C15       1.0  0.35731  0.70365  0.29903  1.0000
  C   C16       1.0  0.32127  0.68997  0.29837  1.0000
  C   C17       1.0  0.29835  0.65406  0.29890  1.0000
  C   C18       1.0  0.31202  0.63169  0.29831  1.0000
  C   C19       1.0  0.34793  0.64469  0.29892  1.0000
  C   C20       1.0  0.37030  0.68073  0.29841  1.0000
  C   C21       1.0  0.36058  0.62216  0.29238  1.0000
  C   C22       1.0  0.38365  0.62196  0.34938  1.0000
  C   C23       1.0  0.39717  0.60015  0.34144  1.0000
  C   C24       1.0  0.43304  0.61369  0.34966  1.0000
  C   C25       1.0  0.37605  0.56435  0.32740  1.0000
  C   C26       1.0  0.39047  0.54289  0.32032  1.0000
  C   C27       1.0  0.42636  0.55631  0.32895  1.0000
  C   C28       1.0  0.44737  0.59214  0.34329  1.0000
  C   C29       1.0  0.26317  0.64142  0.29236  1.0000
  C   C30       1.0  0.23990  0.61834  0.34935  1.0000
  C   C31       1.0  0.20457  0.60483  0.34144  1.0000
  C   C32       1.0  0.18991  0.62597  0.32741  1.0000
  C   C33       1.0  0.18223  0.56897  0.34972  1.0000
  C   C34       1.0  0.14635  0.55465  0.34338  1.0000
  C   C35       1.0  0.13155  0.57568  0.32907  1.0000
  C   C36       1.0  0.15403  0.61157  0.32042  1.0000
  H   H13       1.0  0.48492  0.85756  0.31105  1.0000
  H   H14       1.0  0.44848  0.79678  0.32279  1.0000
  H   H15       1.0  0.39638  0.69040  0.29572  1.0000
  H   H16       1.0  0.31159  0.70638  0.29571  1.0000
  H   H17       1.0  0.29561  0.60561  0.29561  1.0000
  H   H18       1.0  0.20523  0.65212  0.32265  1.0000
  H   H19       1.0  0.44916  0.63949  0.35959  1.0000
  H   H20       1.0  0.37426  0.51709  0.31091  1.0000
  H   H21       1.0  0.34990  0.55351  0.32268  1.0000
  H   H22       1.0  0.14445  0.62778  0.31097  1.0000
  H   H23       1.0  0.19191  0.55284  0.35966  1.0000
  H   H24       1.0  0.39266  0.63917  0.39864  1.0000
  H   H25       1.0  0.35172  0.60526  0.24244  1.0000
  H   H26       1.0  0.36281  0.75389  0.39871  1.0000
  H   H27       1.0  0.39675  0.74686  0.24258  1.0000
  H   H28       1.0  0.24811  0.60933  0.39860  1.0000
  H   H29       1.0  0.25514  0.65029  0.24244  1.0000
  C   C37       1.0  0.09518  0.56127  0.32232  1.0000
  C   C38       1.0  0.44080  0.53438  0.32211  1.0000
  C   C39       1.0  0.46767  0.90682  0.32231  1.0000
  O   O1        1.0  0.42436  0.50623  0.26920  1.0000
  O   O2        1.0  0.49575  0.91853  0.26918  1.0000
  O   O3        1.0  0.08346  0.57763  0.26916  1.0000
  C   C40       1.0  0.55831  0.13221  0.35312  1.0000
  C   C41       1.0  0.54585  0.15564  0.35584  1.0000
  C   C42       1.0  0.56827  0.19133  0.34838  1.0000
  C   C43       1.0  0.60406  0.20487  0.33811  1.0000
  C   C44       1.0  0.61674  0.18172  0.33570  1.0000
  C   C45       1.0  0.62680  0.24011  0.33755  1.0000
  C   C46       1.0  0.62390  0.26229  0.28272  1.0000
  C   C47       1.0  0.64592  0.29775  0.28441  1.0000
  C   C48       1.0  0.68211  0.31250  0.28377  1.0000
  C   C49       1.0  0.70425  0.34857  0.28442  1.0000
  C   C50       1.0  0.68949  0.37002  0.28375  1.0000
  C   C51       1.0  0.65342  0.35608  0.28439  1.0000
  C   C52       1.0  0.63197  0.31988  0.28374  1.0000
  C   C53       1.0  0.63997  0.37808  0.28268  1.0000
  C   C54       1.0  0.61491  0.37519  0.33757  1.0000
  C   C55       1.0  0.60241  0.39793  0.33818  1.0000
  C   C56       1.0  0.56658  0.38526  0.33576  1.0000
  C   C57       1.0  0.62466  0.43373  0.34848  1.0000
  C   C58       1.0  0.61140  0.45615  0.35594  1.0000
  C   C59       1.0  0.57551  0.44369  0.35324  1.0000
  C   C60       1.0  0.55339  0.40779  0.34268  1.0000
  C   C61       1.0  0.73970  0.36202  0.28274  1.0000
  C   C62       1.0  0.76188  0.38709  0.33758  1.0000
  C   C63       1.0  0.79711  0.39959  0.33819  1.0000
  C   C64       1.0  0.81065  0.37733  0.34848  1.0000
  C   C65       1.0  0.82027  0.43542  0.33583  1.0000
  C   C66       1.0  0.85599  0.44860  0.34275  1.0000
  C   C67       1.0  0.86977  0.42648  0.35320  1.0000
  C   C68       1.0  0.84634  0.39060  0.35593  1.0000
  H   H30       1.0  0.52018  0.14700  0.36418  1.0000
  H   H31       1.0  0.55827  0.20738  0.35290  1.0000
  H   H32       1.0  0.60578  0.30948  0.28251  1.0000
  H   H33       1.0  0.69251  0.29671  0.28256  1.0000
  H   H34       1.0  0.70528  0.39621  0.28253  1.0000
  H   H35       1.0  0.79459  0.35128  0.35293  1.0000
  H   H36       1.0  0.54969  0.35939  0.33053  1.0000
  H   H37       1.0  0.62843  0.48182  0.36428  1.0000
  H   H38       1.0  0.65072  0.44372  0.35294  1.0000
  H   H39       1.0  0.85497  0.37356  0.36423  1.0000
  H   H40       1.0  0.81129  0.45231  0.33053  1.0000
  H   H41       1.0  0.60447  0.35575  0.38077  1.0000
  H   H42       1.0  0.65058  0.39780  0.24029  1.0000
  H   H43       1.0  0.64624  0.24912  0.38077  1.0000
  H   H44       1.0  0.60420  0.25319  0.24026  1.0000
  H   H45       1.0  0.75287  0.39753  0.38078  1.0000
  H   H46       1.0  0.74881  0.35142  0.24032  1.0000
  C   C69       1.0  0.90572  0.43967  0.36727  1.0000
  C   C70       1.0  0.56230  0.46644  0.36732  1.0000
  C   C71       1.0  0.53557  0.09626  0.36721  1.0000
  O   O4        1.0  0.58246  0.49592  0.41288  1.0000
  O   O5        1.0  0.50609  0.08693  0.41277  1.0000
  O   O6        1.0  0.91505  0.41951  0.41277  1.0000
  C   C72       1.0  0.51694  0.49503  0.43369  1.0000
  C   C73       1.0  0.50061  0.51475  0.44526  1.0000
  C   C74       1.0  0.48359  0.51915  0.37050  1.0000
  H   H47       1.0  0.52820  0.49032  0.48704  1.0000
  C   C75       1.0  0.50057  0.52909  0.53472  1.0000
  H   H48       1.0  0.51304  0.52165  0.58559  1.0000
  H   H49       1.0  0.47412  0.51989  0.55618  1.0000
  H   H50       1.0  0.51425  0.55714  0.53162  1.0000
  N   N10       1.0  0.46795  0.53884  0.37307  1.0000
  H   H51       1.0  0.47641  0.55703  0.41759  1.0000
  C   C76       1.0  0.50702  0.02232  0.43370  1.0000
  C   C77       1.0  0.48726  0.98626  0.44529  1.0000
  C   C78       1.0  0.48285  0.96484  0.37054  1.0000
  H   H52       1.0  0.51170  0.03829  0.48702  1.0000
  C   C79       1.0  0.47292  0.97189  0.53475  1.0000
  H   H53       1.0  0.48038  0.99182  0.58562  1.0000
  H   H54       1.0  0.48211  0.95465  0.55624  1.0000
  H   H55       1.0  0.44487  0.95755  0.53165  1.0000
  N   N11       1.0  0.46317  0.92951  0.37316  1.0000
  H   H56       1.0  0.44499  0.91978  0.41770  1.0000
  C   C80       1.0  0.97967  0.48504  0.43370  1.0000
  C   C81       1.0  0.03716  0.51842  0.37058  1.0000
  H   H57       1.0  0.96370  0.47374  0.48702  1.0000
  H   H58       1.0  0.04733  0.52783  0.55629  1.0000
  H   H59       1.0  0.04448  0.48772  0.53163  1.0000
  N   N12       1.0  0.07249  0.53410  0.37322  1.0000
  H   H60       1.0  0.08222  0.52564  0.41773  1.0000
