data_image0
_chemical_formula_structural       C18H9C3O3C18H9C3O3C2H2C3HCOH3NHC2H2C3HCOH3NHC2H2C3HCOH3NHC6H6C6H6C7H3COH3NHC7H3COH3NHC7H3COH3NH
_chemical_formula_sum              "C96 H72 O12 N6"
_cell_length_a       44.466
_cell_length_b       44.4661
_cell_length_c       15.0382
_cell_angle_alpha    90
_cell_angle_beta     90
_cell_angle_gamma    120

_space_group_name_H-M_alt    "P 1"
_space_group_IT_number       1

loop_
  _space_group_symop_operation_xyz
  'x, y, z'

loop_
  _atom_site_type_symbol
  _atom_site_label
  _atom_site_symmetry_multiplicity
  _atom_site_fract_x
  _atom_site_fract_y
  _atom_site_fract_z
  _atom_site_occupancy
  C   C1        1.0  0.29454  0.64402  0.31944  1.0000
  C   C2        1.0  0.31044  0.68064  0.31948  1.0000
  C   C3        1.0  0.34695  0.70229  0.31937  1.0000
  C   C4        1.0  0.36766  0.68638  0.31949  1.0000
  C   C5        1.0  0.35280  0.64988  0.31946  1.0000
  C   C6        1.0  0.31618  0.62916  0.31954  1.0000
  C   C7        1.0  0.36252  0.73916  0.31627  1.0000
  C   C8        1.0  0.35046  0.75526  0.25617  1.0000
  C   C9        1.0  0.36652  0.79163  0.25096  1.0000
  C   C10       1.0  0.39508  0.81331  0.30607  1.0000
  C   C11       1.0  0.25766  0.62272  0.31640  1.0000
  C   C12       1.0  0.18352  0.58116  0.30622  1.0000
  C   C13       1.0  0.20518  0.57425  0.25115  1.0000
  C   C14       1.0  0.24155  0.59454  0.25634  1.0000
  C   C15       1.0  0.37410  0.63431  0.31642  1.0000
  C   C16       1.0  0.41567  0.60172  0.30628  1.0000
  C   C17       1.0  0.42257  0.63028  0.25116  1.0000
  C   C18       1.0  0.40228  0.64636  0.25637  1.0000
  H   H1        1.0  0.19474  0.55426  0.20635  1.0000
  H   H2        1.0  0.25614  0.58903  0.21390  1.0000
  H   H3        1.0  0.40777  0.66644  0.21385  1.0000
  H   H4        1.0  0.44255  0.63982  0.20634  1.0000
  H   H5        1.0  0.35696  0.80206  0.20615  1.0000
  H   H6        1.0  0.33036  0.74066  0.21373  1.0000
  H   H7        1.0  0.29512  0.69180  0.31844  1.0000
  H   H8        1.0  0.30502  0.60268  0.31856  1.0000
  H   H9        1.0  0.39414  0.70170  0.31847  1.0000
  C   C19       1.0  0.41197  0.85018  0.29793  1.0000
  C   C20       1.0  0.14664  0.56120  0.29810  1.0000
  C   C21       1.0  0.43563  0.58481  0.29815  1.0000
  O   O1        1.0  0.45240  0.58838  0.22016  1.0000
  O   O2        1.0  0.13344  0.54440  0.22015  1.0000
  O   O3        1.0  0.40838  0.86338  0.21998  1.0000
  C   C22       1.0  0.70144  0.35453  0.30527  1.0000
  C   C23       1.0  0.68688  0.31806  0.30511  1.0000
  C   C24       1.0  0.65056  0.29540  0.30532  1.0000
  C   C25       1.0  0.62865  0.30996  0.30513  1.0000
  C   C26       1.0  0.64231  0.34628  0.30527  1.0000
  C   C27       1.0  0.67878  0.36819  0.30508  1.0000
  C   C28       1.0  0.63634  0.25876  0.30799  1.0000
  C   C29       1.0  0.64781  0.24187  0.24871  1.0000
  C   C30       1.0  0.63313  0.20556  0.25067  1.0000
  C   C31       1.0  0.60634  0.18504  0.31146  1.0000
  C   C32       1.0  0.73808  0.37695  0.30789  1.0000
  C   C33       1.0  0.81180  0.42064  0.31123  1.0000
  C   C34       1.0  0.79127  0.42692  0.25049  1.0000
  C   C35       1.0  0.75496  0.40529  0.24859  1.0000
  C   C36       1.0  0.61989  0.36050  0.30789  1.0000
  C   C37       1.0  0.57618  0.39051  0.31127  1.0000
  C   C38       1.0  0.56993  0.36372  0.25049  1.0000
  C   C39       1.0  0.59154  0.34903  0.24859  1.0000
  H   H10       1.0  0.80262  0.44659  0.20498  1.0000
  H   H11       1.0  0.74104  0.40991  0.20178  1.0000
  H   H12       1.0  0.58690  0.33047  0.20185  1.0000
  H   H13       1.0  0.55021  0.35536  0.20509  1.0000
  H   H14       1.0  0.64145  0.19420  0.20520  1.0000
  H   H15       1.0  0.66634  0.25578  0.20189  1.0000
  H   H16       1.0  0.70302  0.30781  0.30591  1.0000
  H   H17       1.0  0.68902  0.39457  0.30583  1.0000
  H   H18       1.0  0.60227  0.29382  0.30591  1.0000
  C   C40       1.0  0.59064  0.14826  0.31200  1.0000
  C   C41       1.0  0.84859  0.44172  0.31166  1.0000
  C   C42       1.0  0.55509  0.40620  0.31177  1.0000
  O   O4        1.0  0.52128  0.38640  0.28827  1.0000
  O   O5        1.0  0.86261  0.47554  0.28822  1.0000
  O   O6        1.0  0.61042  0.13424  0.28836  1.0000
  C   C43       1.0  0.47307  0.51029  0.28467  1.0000
  C   C44       1.0  0.45409  0.52767  0.28902  1.0000
  H   H19       1.0  0.46946  0.49459  0.23112  1.0000
  H   H20       1.0  0.43673  0.52366  0.23947  1.0000
  C   C45       1.0  0.55035  0.45804  0.32930  1.0000
  C   C46       1.0  0.56391  0.49088  0.28818  1.0000
  C   C47       1.0  0.54690  0.51056  0.29346  1.0000
  H   H21       1.0  0.58643  0.50017  0.25268  1.0000
  C   C48       1.0  0.56153  0.54501  0.24797  1.0000
  O   O7        1.0  0.59426  0.55773  0.20379  1.0000
  H   H22       1.0  0.56403  0.56463  0.29595  1.0000
  H   H23       1.0  0.54308  0.54289  0.19707  1.0000
  H   H24       1.0  0.61236  0.56427  0.24946  1.0000
  N   N1        1.0  0.56874  0.44089  0.32615  1.0000
  H   H25       1.0  0.59398  0.45536  0.32792  1.0000
  C   C49       1.0  0.48648  0.96215  0.28457  1.0000
  C   C50       1.0  0.46908  0.92580  0.28887  1.0000
  H   H26       1.0  0.50217  0.97425  0.23102  1.0000
  H   H27       1.0  0.47307  0.91245  0.23928  1.0000
  C   C51       1.0  0.53879  0.09169  0.32944  1.0000
  C   C52       1.0  0.50595  0.07242  0.28830  1.0000
  C   C53       1.0  0.48626  0.03573  0.29351  1.0000
  H   H28       1.0  0.49667  0.08568  0.25284  1.0000
  C   C54       1.0  0.45181  0.01594  0.24802  1.0000
  O   O8        1.0  0.43910  0.03597  0.20389  1.0000
  H   H29       1.0  0.43218  0.99880  0.29598  1.0000
  H   H30       1.0  0.45392  0.99962  0.19708  1.0000
  H   H31       1.0  0.43256  0.04751  0.24960  1.0000
  N   N2        1.0  0.55595  0.12722  0.32637  1.0000
  H   H32       1.0  0.54148  0.13800  0.32816  1.0000
  C   C55       1.0  0.03467  0.52373  0.28465  1.0000
  C   C56       1.0  0.07103  0.54271  0.28899  1.0000
  H   H33       1.0  0.02258  0.52732  0.23110  1.0000
  H   H34       1.0  0.08438  0.56007  0.23942  1.0000
  C   C57       1.0  0.90515  0.44645  0.32930  1.0000
  C   C58       1.0  0.92444  0.43289  0.28817  1.0000
  C   C59       1.0  0.96112  0.44990  0.29346  1.0000
  H   H35       1.0  0.91120  0.41037  0.25267  1.0000
  C   C60       1.0  0.98094  0.43527  0.24797  1.0000
  O   O9        1.0  0.96093  0.40254  0.20378  1.0000
  H   H36       1.0  0.99807  0.43277  0.29594  1.0000
  H   H37       1.0  0.99727  0.45372  0.19706  1.0000
  H   H38       1.0  0.94938  0.38444  0.24946  1.0000
  N   N3        1.0  0.86962  0.42807  0.32613  1.0000
  H   H39       1.0  0.85884  0.40282  0.32793  1.0000
  C   C61       1.0  0.40713  0.79712  0.36603  1.0000
  C   C62       1.0  0.39111  0.76075  0.37122  1.0000
  C   C63       1.0  0.23609  0.62974  0.37133  1.0000
  C   C64       1.0  0.19972  0.60941  0.36619  1.0000
  C   C65       1.0  0.36709  0.60572  0.37139  1.0000
  C   C66       1.0  0.38743  0.58969  0.36625  1.0000
  H   H40       1.0  0.18530  0.61627  0.40529  1.0000
  H   H41       1.0  0.24666  0.64983  0.41586  1.0000
  H   H42       1.0  0.34701  0.59621  0.41593  1.0000
  H   H43       1.0  0.38058  0.56842  0.40539  1.0000
  H   H44       1.0  0.40062  0.75018  0.41579  1.0000
  H   H45       1.0  0.42839  0.81154  0.40519  1.0000
  C   C67       1.0  0.59559  0.20207  0.37230  1.0000
  C   C68       1.0  0.61031  0.23832  0.37053  1.0000
  C   C69       1.0  0.75853  0.37136  0.37042  1.0000
  C   C70       1.0  0.79478  0.39288  0.37211  1.0000
  C   C71       1.0  0.62549  0.38655  0.37039  1.0000
  C   C72       1.0  0.60396  0.40127  0.37211  1.0000
  H   H46       1.0  0.80857  0.38817  0.41908  1.0000
  H   H47       1.0  0.74718  0.35168  0.41595  1.0000
  H   H48       1.0  0.64517  0.39488  0.41592  1.0000
  H   H49       1.0  0.60867  0.41976  0.41910  1.0000
  H   H50       1.0  0.60198  0.24967  0.41605  1.0000
  H   H51       1.0  0.57710  0.18829  0.41930  1.0000
  C   C73       1.0  0.45849  0.54993  0.36091  1.0000
  C   C74       1.0  0.48107  0.55278  0.43068  1.0000
  C   C75       1.0  0.50065  0.53564  0.42780  1.0000
  C   C76       1.0  0.49675  0.51448  0.35269  1.0000
  C   C77       1.0  0.51542  0.49656  0.34293  1.0000
  C   C78       1.0  0.50203  0.46404  0.38547  1.0000
  C   C79       1.0  0.51941  0.44510  0.37901  1.0000
  H   H52       1.0  0.47973  0.45403  0.42242  1.0000
  H   H53       1.0  0.50975  0.42217  0.41285  1.0000
  H   H54       1.0  0.48395  0.56847  0.48370  1.0000
  C   C80       1.0  0.52444  0.54116  0.50373  1.0000
  O   O10       1.0  0.50430  0.52606  0.58236  1.0000
  H   H55       1.0  0.54080  0.52967  0.49194  1.0000
  H   H56       1.0  0.54173  0.56905  0.51344  1.0000
  H   H57       1.0  0.52053  0.53067  0.63183  1.0000
  N   N4        1.0  0.44022  0.56722  0.36629  1.0000
  H   H58       1.0  0.43306  0.56990  0.42563  1.0000
  C   C81       1.0  0.44683  0.90792  0.36077  1.0000
  C   C82       1.0  0.44400  0.92765  0.43058  1.0000
  C   C83       1.0  0.46116  0.96437  0.42776  1.0000
  C   C84       1.0  0.48232  0.98164  0.35265  1.0000
  C   C85       1.0  0.50025  0.01823  0.34293  1.0000
  C   C86       1.0  0.53277  0.03734  0.38548  1.0000
  C   C87       1.0  0.55172  0.07366  0.37909  1.0000
  H   H59       1.0  0.54277  0.02503  0.42240  1.0000
  H   H60       1.0  0.57465  0.08692  0.41294  1.0000
  H   H61       1.0  0.42832  0.91484  0.48361  1.0000
  C   C88       1.0  0.45567  0.98264  0.50374  1.0000
  O   O11       1.0  0.47077  0.97757  0.58234  1.0000
  H   H62       1.0  0.46716  0.01048  0.49199  1.0000
  H   H63       1.0  0.42777  0.97205  0.51348  1.0000
  H   H64       1.0  0.46618  0.98920  0.63184  1.0000
  N   N5        1.0  0.42951  0.87236  0.36611  1.0000
  H   H65       1.0  0.42687  0.86252  0.42544  1.0000
  C   C89       1.0  0.08890  0.53833  0.36088  1.0000
  C   C90       1.0  0.06918  0.51575  0.43066  1.0000
  C   C91       1.0  0.03246  0.49616  0.42779  1.0000
  C   C92       1.0  0.01519  0.50005  0.35268  1.0000
  C   C93       1.0  0.97860  0.48138  0.34293  1.0000
  C   C94       1.0  0.95947  0.49476  0.38548  1.0000
  C   C95       1.0  0.92316  0.47739  0.37901  1.0000
  H   H66       1.0  0.97177  0.51707  0.42243  1.0000
  H   H67       1.0  0.90988  0.48704  0.41285  1.0000
  H   H68       1.0  0.08199  0.51288  0.48369  1.0000
  C   C96       1.0  0.01419  0.47238  0.50374  1.0000
  O   O12       1.0  0.01923  0.49253  0.58236  1.0000
  H   H69       1.0  0.98635  0.45602  0.49195  1.0000
  H   H70       1.0  0.02480  0.45509  0.51346  1.0000
  H   H71       1.0  0.00761  0.47630  0.63183  1.0000
  N   N6        1.0  0.12446  0.55660  0.36625  1.0000
  H   H72       1.0  0.13430  0.56377  0.42558  1.0000
