data_image0
_chemical_formula_structural       C2HCN2C3NC2NCH3CH3CHC3NC2NCH3CH3CHC12HCH4N2C3H2CHC3H2CHC2HCN2C3NC2NCH3CH3CHC3NC2NCH3CH3CHC12HCH4N2C3H2CHC3H2CHC2HCN2C3NC2NCH3CH3CHC3NC2NCH3CH3CHC12HCH4N2C3H2CHC3H2CHC2HCN2C3NC2NCH3CH3CHC3NC2NCH3CH3CHC12HCH4N2C3H2CHC3H2CH
_chemical_formula_sum              "C160 H104 N32"
_cell_length_a       31.7626
_cell_length_b       31.7626
_cell_length_c       14.91
_cell_angle_alpha    90
_cell_angle_beta     90
_cell_angle_gamma    90

_space_group_name_H-M_alt    "P 1"
_space_group_IT_number       1

loop_
  _space_group_symop_operation_xyz
  'x, y, z'

loop_
  _atom_site_type_symbol
  _atom_site_label
  _atom_site_symmetry_multiplicity
  _atom_site_fract_x
  _atom_site_fract_y
  _atom_site_fract_z
  _atom_site_occupancy
  C   C1        1.0  0.47101  0.03501  0.31932  1.0000
  C   C2        1.0  0.39575  0.05533  0.33090  1.0000
  H   H1        1.0  0.38571  0.12034  0.34685  1.0000
  C   C3        1.0  0.04661  0.01431  0.31099  1.0000
  N   N1        1.0  0.35312  0.05062  0.32391  1.0000
  N   N2        1.0  0.12100  0.48777  0.30504  1.0000
  C   C4        1.0  0.98557  0.22307  0.29681  1.0000
  C   C5        1.0  0.01489  0.24821  0.24864  1.0000
  C   C6        1.0  0.01675  0.29265  0.26068  1.0000
  N   N3        1.0  0.04455  0.31432  0.20901  1.0000
  C   C7        1.0  0.07090  0.29690  0.14761  1.0000
  C   C8        1.0  0.06963  0.25262  0.13670  1.0000
  N   N4        1.0  0.04162  0.23092  0.18756  1.0000
  C   C9        1.0  0.09845  0.32525  0.09571  1.0000
  H   H2        1.0  0.09332  0.35804  0.11462  1.0000
  H   H3        1.0  0.59181  0.32210  0.02422  1.0000
  H   H4        1.0  0.13134  0.31735  0.10827  1.0000
  C   C10       1.0  0.09558  0.22775  0.07365  1.0000
  H   H5        1.0  0.11735  0.24707  0.03497  1.0000
  H   H6        1.0  0.57507  0.21116  0.02676  1.0000
  H   H7        1.0  0.11394  0.20463  0.11109  1.0000
  C   C11       1.0  0.98457  0.17874  0.28666  1.0000
  H   H8        1.0  0.00530  0.16528  0.24296  1.0000
  C   C12       1.0  0.28295  0.02047  0.29681  1.0000
  C   C13       1.0  0.25781  0.99116  0.24860  1.0000
  C   C14       1.0  0.21337  0.98929  0.26066  1.0000
  N   N5        1.0  0.19170  0.96151  0.20895  1.0000
  C   C15       1.0  0.20912  0.93517  0.14752  1.0000
  C   C16       1.0  0.25340  0.93644  0.13661  1.0000
  N   N6        1.0  0.27510  0.96444  0.18750  1.0000
  C   C17       1.0  0.18077  0.90764  0.09557  1.0000
  H   H9        1.0  0.14797  0.91277  0.11448  1.0000
  H   H10       1.0  0.18867  0.37475  0.10808  1.0000
  H   H11       1.0  0.18392  0.91430  0.02409  1.0000
  C   C18       1.0  0.27826  0.91051  0.07352  1.0000
  H   H12       1.0  0.25895  0.88875  0.03482  1.0000
  H   H13       1.0  0.30139  0.39215  0.11094  1.0000
  H   H14       1.0  0.29486  0.93104  0.02665  1.0000
  C   C19       1.0  0.32728  0.02148  0.28667  1.0000
  H   H15       1.0  0.34074  0.00072  0.24300  1.0000
  C   C20       1.0  0.42745  0.52373  0.32206  1.0000
  C   C21       1.0  0.40853  0.09749  0.34280  1.0000
  C   C22       1.0  0.45069  0.11027  0.33076  1.0000
  C   C23       1.0  0.48229  0.07857  0.32203  1.0000
  C   C24       1.0  0.41751  0.48046  0.32174  1.0000
  C   C25       1.0  0.02557  0.08851  0.32169  1.0000
  C   C26       1.0  0.00305  0.50297  0.31397  1.0000
  C   C27       1.0  0.99170  0.45941  0.31100  1.0000
  C   C28       1.0  0.02323  0.42773  0.30116  1.0000
  C   C29       1.0  0.06540  0.44061  0.28928  1.0000
  C   C30       1.0  0.07830  0.48278  0.30121  1.0000
  C   C31       1.0  0.44843  0.44949  0.31265  1.0000
  H   H16       1.0  0.08821  0.41783  0.28373  1.0000
  C   C32       1.0  0.05654  0.05759  0.31257  1.0000
  H   H17       1.0  0.43794  0.41953  0.30416  1.0000
  H   H18       1.0  0.38754  0.47005  0.33102  1.0000
  H   H19       1.0  0.08650  0.06808  0.30422  1.0000
  H   H20       1.0  0.03598  0.11848  0.33101  1.0000
  N   N7        1.0  0.45541  0.15290  0.32386  1.0000
  N   N8        1.0  0.01825  0.38503  0.30502  1.0000
  C   C33       1.0  0.98961  0.31333  0.32217  1.0000
  C   C34       1.0  0.96004  0.28796  0.36863  1.0000
  C   C35       1.0  0.95805  0.24404  0.35645  1.0000
  H   H21       1.0  0.93637  0.22742  0.39289  1.0000
  H   H22       1.0  0.93942  0.30130  0.41317  1.0000
  C   C36       1.0  0.98937  0.35741  0.33731  1.0000
  H   H23       1.0  0.96781  0.36900  0.38178  1.0000
  C   C37       1.0  0.19269  0.01642  0.32216  1.0000
  C   C38       1.0  0.21806  0.04598  0.36865  1.0000
  C   C39       1.0  0.26198  0.04798  0.35646  1.0000
  H   H24       1.0  0.27859  0.06966  0.39292  1.0000
  H   H25       1.0  0.20471  0.06659  0.41321  1.0000
  C   C40       1.0  0.14861  0.01665  0.33732  1.0000
  H   H26       1.0  0.13702  0.03820  0.38182  1.0000
  C   C41       1.0  0.47101  0.53501  0.31932  1.0000
  C   C42       1.0  0.39575  0.55533  0.33090  1.0000
  H   H27       1.0  0.38571  0.62034  0.34685  1.0000
  C   C43       1.0  0.04661  0.51431  0.31099  1.0000
  N   N9        1.0  0.35312  0.55062  0.32391  1.0000
  N   N10       1.0  0.12100  0.98777  0.30504  1.0000
  C   C44       1.0  0.98557  0.72307  0.29681  1.0000
  C   C45       1.0  0.01489  0.74821  0.24864  1.0000
  C   C46       1.0  0.01675  0.79265  0.26068  1.0000
  N   N11       1.0  0.04455  0.81432  0.20901  1.0000
  C   C47       1.0  0.07090  0.79690  0.14761  1.0000
  C   C48       1.0  0.06963  0.75262  0.13670  1.0000
  N   N12       1.0  0.04162  0.73092  0.18756  1.0000
  C   C49       1.0  0.09845  0.82525  0.09571  1.0000
  H   H28       1.0  0.09332  0.85804  0.11462  1.0000
  H   H29       1.0  0.59181  0.82210  0.02422  1.0000
  H   H30       1.0  0.13134  0.81735  0.10827  1.0000
  C   C50       1.0  0.09558  0.72776  0.07365  1.0000
  H   H31       1.0  0.11735  0.74707  0.03497  1.0000
  H   H32       1.0  0.57507  0.71116  0.02676  1.0000
  H   H33       1.0  0.11394  0.70463  0.11109  1.0000
  C   C51       1.0  0.98457  0.67874  0.28666  1.0000
  H   H34       1.0  0.00530  0.66527  0.24296  1.0000
  C   C52       1.0  0.28295  0.52046  0.29681  1.0000
  C   C53       1.0  0.25781  0.49116  0.24860  1.0000
  C   C54       1.0  0.21337  0.48929  0.26066  1.0000
  N   N13       1.0  0.19170  0.46151  0.20895  1.0000
  C   C55       1.0  0.20912  0.43517  0.14752  1.0000
  C   C56       1.0  0.25340  0.43645  0.13661  1.0000
  N   N14       1.0  0.27510  0.46444  0.18750  1.0000
  C   C57       1.0  0.18077  0.40764  0.09557  1.0000
  H   H35       1.0  0.14797  0.41277  0.11448  1.0000
  H   H36       1.0  0.18867  0.87474  0.10808  1.0000
  H   H37       1.0  0.18392  0.41430  0.02409  1.0000
  C   C58       1.0  0.27826  0.41052  0.07352  1.0000
  H   H38       1.0  0.25895  0.38876  0.03482  1.0000
  H   H39       1.0  0.30139  0.89215  0.11094  1.0000
  H   H40       1.0  0.29486  0.43104  0.02665  1.0000
  C   C59       1.0  0.32728  0.52148  0.28667  1.0000
  H   H41       1.0  0.34074  0.50072  0.24300  1.0000
  C   C60       1.0  0.42745  0.02373  0.32206  1.0000
  C   C61       1.0  0.40853  0.59749  0.34280  1.0000
  C   C62       1.0  0.45069  0.61027  0.33076  1.0000
  C   C63       1.0  0.48229  0.57857  0.32203  1.0000
  C   C64       1.0  0.41751  0.98046  0.32174  1.0000
  C   C65       1.0  0.02557  0.58851  0.32169  1.0000
  C   C66       1.0  0.00305  0.00297  0.31397  1.0000
  C   C67       1.0  0.99170  0.95941  0.31100  1.0000
  C   C68       1.0  0.02323  0.92773  0.30116  1.0000
  C   C69       1.0  0.06540  0.94061  0.28928  1.0000
  C   C70       1.0  0.07830  0.98279  0.30121  1.0000
  C   C71       1.0  0.44843  0.94949  0.31265  1.0000
  H   H42       1.0  0.08821  0.91783  0.28373  1.0000
  C   C72       1.0  0.05654  0.55759  0.31257  1.0000
  H   H43       1.0  0.43794  0.91953  0.30416  1.0000
  H   H44       1.0  0.38754  0.97005  0.33102  1.0000
  H   H45       1.0  0.08650  0.56808  0.30422  1.0000
  H   H46       1.0  0.03598  0.61848  0.33101  1.0000
  N   N15       1.0  0.45541  0.65290  0.32386  1.0000
  N   N16       1.0  0.01825  0.88502  0.30502  1.0000
  C   C73       1.0  0.98961  0.81333  0.32217  1.0000
  C   C74       1.0  0.96004  0.78796  0.36863  1.0000
  C   C75       1.0  0.95805  0.74404  0.35645  1.0000
  H   H47       1.0  0.93637  0.72742  0.39289  1.0000
  H   H48       1.0  0.93942  0.80131  0.41317  1.0000
  C   C76       1.0  0.98937  0.85741  0.33731  1.0000
  H   H49       1.0  0.96781  0.86900  0.38178  1.0000
  C   C77       1.0  0.19269  0.51642  0.32216  1.0000
  C   C78       1.0  0.21806  0.54598  0.36865  1.0000
  C   C79       1.0  0.26198  0.54798  0.35646  1.0000
  H   H50       1.0  0.27859  0.56966  0.39292  1.0000
  H   H51       1.0  0.20471  0.56659  0.41321  1.0000
  C   C80       1.0  0.14861  0.51665  0.33732  1.0000
  H   H52       1.0  0.13702  0.53820  0.38182  1.0000
  C   C81       1.0  0.97101  0.03501  0.31932  1.0000
  C   C82       1.0  0.89575  0.05533  0.33090  1.0000
  H   H53       1.0  0.88571  0.12034  0.34685  1.0000
  C   C83       1.0  0.54661  0.01431  0.31099  1.0000
  N   N17       1.0  0.85312  0.05062  0.32391  1.0000
  N   N18       1.0  0.62100  0.48777  0.30504  1.0000
  C   C84       1.0  0.48558  0.22307  0.29681  1.0000
  C   C85       1.0  0.51489  0.24821  0.24864  1.0000
  C   C86       1.0  0.51676  0.29265  0.26068  1.0000
  N   N19       1.0  0.54455  0.31432  0.20901  1.0000
  C   C87       1.0  0.57090  0.29690  0.14761  1.0000
  C   C88       1.0  0.56963  0.25262  0.13670  1.0000
  N   N20       1.0  0.54162  0.23092  0.18756  1.0000
  C   C89       1.0  0.59845  0.32525  0.09571  1.0000
  H   H54       1.0  0.59332  0.35804  0.11462  1.0000
  H   H55       1.0  0.09181  0.32210  0.02422  1.0000
  H   H56       1.0  0.63134  0.31735  0.10827  1.0000
  C   C90       1.0  0.59558  0.22775  0.07365  1.0000
  H   H57       1.0  0.61735  0.24707  0.03497  1.0000
  H   H58       1.0  0.07507  0.21116  0.02676  1.0000
  H   H59       1.0  0.61394  0.20463  0.11109  1.0000
  C   C91       1.0  0.48457  0.17874  0.28666  1.0000
  H   H60       1.0  0.50530  0.16528  0.24296  1.0000
  C   C92       1.0  0.78295  0.02047  0.29681  1.0000
  C   C93       1.0  0.75780  0.99116  0.24860  1.0000
  C   C94       1.0  0.71337  0.98929  0.26066  1.0000
  N   N21       1.0  0.69170  0.96151  0.20895  1.0000
  C   C95       1.0  0.70912  0.93517  0.14752  1.0000
  C   C96       1.0  0.75340  0.93644  0.13661  1.0000
  N   N22       1.0  0.77509  0.96444  0.18750  1.0000
  C   C97       1.0  0.68076  0.90764  0.09557  1.0000
  H   H61       1.0  0.64797  0.91277  0.11448  1.0000
  H   H62       1.0  0.68867  0.37475  0.10808  1.0000
  H   H63       1.0  0.68392  0.91430  0.02409  1.0000
  C   C98       1.0  0.77826  0.91051  0.07352  1.0000
  H   H64       1.0  0.75895  0.88875  0.03482  1.0000
  H   H65       1.0  0.80139  0.39215  0.11094  1.0000
  H   H66       1.0  0.79486  0.93104  0.02665  1.0000
  C   C99       1.0  0.82728  0.02148  0.28667  1.0000
  H   H67       1.0  0.84074  0.00072  0.24300  1.0000
  C   C100      1.0  0.92745  0.52373  0.32206  1.0000
  C   C101      1.0  0.90853  0.09749  0.34280  1.0000
  C   C102      1.0  0.95069  0.11027  0.33076  1.0000
  C   C103      1.0  0.98230  0.07857  0.32203  1.0000
  C   C104      1.0  0.91751  0.48046  0.32174  1.0000
  C   C105      1.0  0.52557  0.08851  0.32169  1.0000
  C   C106      1.0  0.50305  0.50297  0.31397  1.0000
  C   C107      1.0  0.49171  0.45941  0.31100  1.0000
  C   C108      1.0  0.52323  0.42773  0.30116  1.0000
  C   C109      1.0  0.56540  0.44061  0.28928  1.0000
  C   C110      1.0  0.57829  0.48278  0.30121  1.0000
  C   C111      1.0  0.94843  0.44949  0.31265  1.0000
  H   H68       1.0  0.58821  0.41783  0.28373  1.0000
  C   C112      1.0  0.55654  0.05759  0.31257  1.0000
  H   H69       1.0  0.93793  0.41953  0.30416  1.0000
  H   H70       1.0  0.88753  0.47005  0.33102  1.0000
  H   H71       1.0  0.58650  0.06808  0.30422  1.0000
  H   H72       1.0  0.53598  0.11848  0.33101  1.0000
  N   N23       1.0  0.95541  0.15290  0.32386  1.0000
  N   N24       1.0  0.51825  0.38503  0.30502  1.0000
  C   C113      1.0  0.48961  0.31333  0.32217  1.0000
  C   C114      1.0  0.46004  0.28796  0.36863  1.0000
  C   C115      1.0  0.45805  0.24404  0.35645  1.0000
  H   H73       1.0  0.43637  0.22742  0.39289  1.0000
  H   H74       1.0  0.43942  0.30130  0.41317  1.0000
  C   C116      1.0  0.48936  0.35741  0.33731  1.0000
  H   H75       1.0  0.46781  0.36900  0.38178  1.0000
  C   C117      1.0  0.69269  0.01642  0.32216  1.0000
  C   C118      1.0  0.71806  0.04598  0.36865  1.0000
  C   C119      1.0  0.76198  0.04798  0.35646  1.0000
  H   H76       1.0  0.77859  0.06966  0.39292  1.0000
  H   H77       1.0  0.70471  0.06659  0.41321  1.0000
  C   C120      1.0  0.64861  0.01665  0.33732  1.0000
  H   H78       1.0  0.63702  0.03820  0.38182  1.0000
  C   C121      1.0  0.97101  0.53501  0.31932  1.0000
  C   C122      1.0  0.89575  0.55533  0.33090  1.0000
  H   H79       1.0  0.88571  0.62034  0.34685  1.0000
  C   C123      1.0  0.54661  0.51431  0.31099  1.0000
  N   N25       1.0  0.85312  0.55062  0.32391  1.0000
  N   N26       1.0  0.62100  0.98777  0.30504  1.0000
  C   C124      1.0  0.48558  0.72307  0.29681  1.0000
  C   C125      1.0  0.51489  0.74821  0.24864  1.0000
  C   C126      1.0  0.51676  0.79265  0.26068  1.0000
  N   N27       1.0  0.54455  0.81432  0.20901  1.0000
  C   C127      1.0  0.57090  0.79690  0.14761  1.0000
  C   C128      1.0  0.56963  0.75262  0.13670  1.0000
  N   N28       1.0  0.54162  0.73092  0.18756  1.0000
  C   C129      1.0  0.59845  0.82525  0.09571  1.0000
  H   H80       1.0  0.59332  0.85804  0.11462  1.0000
  H   H81       1.0  0.09181  0.82210  0.02422  1.0000
  H   H82       1.0  0.63134  0.81735  0.10827  1.0000
  C   C130      1.0  0.59558  0.72776  0.07365  1.0000
  H   H83       1.0  0.61735  0.74707  0.03497  1.0000
  H   H84       1.0  0.07507  0.71116  0.02676  1.0000
  H   H85       1.0  0.61394  0.70463  0.11109  1.0000
  C   C131      1.0  0.48457  0.67874  0.28666  1.0000
  H   H86       1.0  0.50530  0.66527  0.24296  1.0000
  C   C132      1.0  0.78295  0.52046  0.29681  1.0000
  C   C133      1.0  0.75780  0.49116  0.24860  1.0000
  C   C134      1.0  0.71337  0.48929  0.26066  1.0000
  N   N29       1.0  0.69170  0.46151  0.20895  1.0000
  C   C135      1.0  0.70912  0.43517  0.14752  1.0000
  C   C136      1.0  0.75340  0.43645  0.13661  1.0000
  N   N30       1.0  0.77509  0.46444  0.18750  1.0000
  C   C137      1.0  0.68076  0.40764  0.09557  1.0000
  H   H87       1.0  0.64797  0.41277  0.11448  1.0000
  H   H88       1.0  0.68867  0.87474  0.10808  1.0000
  H   H89       1.0  0.68392  0.41430  0.02409  1.0000
  C   C138      1.0  0.77826  0.41052  0.07352  1.0000
  H   H90       1.0  0.75895  0.38876  0.03482  1.0000
  H   H91       1.0  0.80139  0.89215  0.11094  1.0000
  H   H92       1.0  0.79486  0.43104  0.02665  1.0000
  C   C139      1.0  0.82728  0.52148  0.28667  1.0000
  H   H93       1.0  0.84074  0.50072  0.24300  1.0000
  C   C140      1.0  0.92745  0.02373  0.32206  1.0000
  C   C141      1.0  0.90853  0.59749  0.34280  1.0000
  C   C142      1.0  0.95069  0.61027  0.33076  1.0000
  C   C143      1.0  0.98230  0.57857  0.32203  1.0000
  C   C144      1.0  0.91751  0.98046  0.32174  1.0000
  C   C145      1.0  0.52557  0.58851  0.32169  1.0000
  C   C146      1.0  0.50305  0.00297  0.31397  1.0000
  C   C147      1.0  0.49171  0.95941  0.31100  1.0000
  C   C148      1.0  0.52323  0.92773  0.30116  1.0000
  C   C149      1.0  0.56540  0.94061  0.28928  1.0000
  C   C150      1.0  0.57829  0.98279  0.30121  1.0000
  C   C151      1.0  0.94843  0.94949  0.31265  1.0000
  H   H94       1.0  0.58821  0.91783  0.28373  1.0000
  C   C152      1.0  0.55654  0.55759  0.31257  1.0000
  H   H95       1.0  0.93793  0.91953  0.30416  1.0000
  H   H96       1.0  0.88753  0.97005  0.33102  1.0000
  H   H97       1.0  0.58650  0.56808  0.30422  1.0000
  H   H98       1.0  0.53598  0.61848  0.33101  1.0000
  N   N31       1.0  0.95541  0.65290  0.32386  1.0000
  N   N32       1.0  0.51825  0.88502  0.30502  1.0000
  C   C153      1.0  0.48961  0.81333  0.32217  1.0000
  C   C154      1.0  0.46004  0.78796  0.36863  1.0000
  C   C155      1.0  0.45805  0.74404  0.35645  1.0000
  H   H99       1.0  0.43637  0.72742  0.39289  1.0000
  H   H100      1.0  0.43942  0.80131  0.41317  1.0000
  C   C156      1.0  0.48936  0.85741  0.33731  1.0000
  H   H101      1.0  0.46781  0.86900  0.38178  1.0000
  C   C157      1.0  0.69269  0.51642  0.32216  1.0000
  C   C158      1.0  0.71806  0.54598  0.36865  1.0000
  C   C159      1.0  0.76198  0.54798  0.35646  1.0000
  H   H102      1.0  0.77859  0.56966  0.39292  1.0000
  H   H103      1.0  0.70471  0.56659  0.41321  1.0000
  C   C160      1.0  0.64861  0.51665  0.33732  1.0000
  H   H104      1.0  0.63702  0.53820  0.38182  1.0000
