data_image0
_chemical_formula_structural       C2HC2H2NC2HNC2HC4H3CHC3H2CNCHCNCHC2HC2H2NC2HNC2HC4H3CHC3H2CNCHCNCHC5HNC2HNC2HC7HC5NCHCNCHC5HNC2HNC2HC7HC5NCHCNCHCHCHCH2C2HCHCH2C3HNC2HNCHC4H2CNHCNCHC2HNC2HNCHC4H2CNHCNCHC2HC2HC2HC2HC2HC2HNC2HNC2HNC2HNC2HNC2HNC2HC4H2C4H2C4H2C4H2C4H2C4H2CNCHCNCHCNCHCNCHCNCHCNCHC2HC2HC2HC2HC2HC2HNC2HNC2HNC2HNC2HNC2HNC2HC4H2C4H2C4H2C4H2C4H2C4H2CNCHCNCHCNCHCNCHCNCHCNCH
_chemical_formula_sum              "C240 H120 N48"
_cell_length_a       46.4317
_cell_length_b       46.4317
_cell_length_c       14.7774
_cell_angle_alpha    90
_cell_angle_beta     90
_cell_angle_gamma    120

_space_group_name_H-M_alt    "P 1"
_space_group_IT_number       1

loop_
  _space_group_symop_operation_xyz
  'x, y, z'

loop_
  _atom_site_type_symbol
  _atom_site_label
  _atom_site_symmetry_multiplicity
  _atom_site_fract_x
  _atom_site_fract_y
  _atom_site_fract_z
  _atom_site_occupancy
  C   C1        1.0  0.04853  0.30220  0.34845  1.0000
  C   C2        1.0  0.08367  0.32022  0.34849  1.0000
  H   H1        1.0  0.03743  0.31632  0.34855  1.0000
  C   C3        1.0  0.21661  0.25007  0.34837  1.0000
  C   C4        1.0  0.19860  0.26721  0.34855  1.0000
  H   H2        1.0  0.20248  0.22485  0.34837  1.0000
  H   H3        1.0  0.22865  0.03372  0.34849  1.0000
  N   N1        1.0  0.14917  0.25284  0.27043  1.0000
  C   C5        1.0  0.11944  0.25181  0.26758  1.0000
  C   C6        1.0  0.10301  0.25166  0.34832  1.0000
  H   H4        1.0  0.11146  0.25550  0.20644  1.0000
  N   N2        1.0  0.11877  0.36966  0.27043  1.0000
  C   C7        1.0  0.14747  0.39940  0.26771  1.0000
  C   C8        1.0  0.16372  0.41589  0.34844  1.0000
  H   H5        1.0  0.15915  0.40737  0.20659  1.0000
  C   C9        1.0  0.02932  0.26657  0.34836  1.0000
  C   C10       1.0  0.10093  0.30253  0.34856  1.0000
  C   C11       1.0  0.08385  0.26758  0.34851  1.0000
  C   C12       1.0  0.04869  0.25031  0.34831  1.0000
  H   H6        1.0  0.12648  0.31537  0.34862  1.0000
  H   H7        1.0  0.03769  0.22509  0.34816  1.0000
  H   H8        1.0  0.22887  0.19872  0.34825  1.0000
  C   C13       1.0  0.21631  0.30215  0.34874  1.0000
  H   H9        1.0  0.20350  0.31488  0.34887  1.0000
  C   C14       1.0  0.21666  0.41796  0.34861  1.0000
  C   C15       1.0  0.19879  0.43504  0.34851  1.0000
  C   C16       1.0  0.21670  0.47020  0.34828  1.0000
  H   H10       1.0  0.20393  0.39241  0.34875  1.0000
  H   H11       1.0  0.20249  0.48120  0.34815  1.0000
  C   C17       1.0  0.11942  0.25204  0.42940  1.0000
  N   N3        1.0  0.14915  0.25306  0.42700  1.0000
  C   C18       1.0  0.16365  0.25129  0.34888  1.0000
  H   H12       1.0  0.11141  0.25584  0.49036  1.0000
  C   C19       1.0  0.14761  0.39943  0.42940  1.0000
  N   N4        1.0  0.11891  0.36969  0.42697  1.0000
  C   C20       1.0  0.10269  0.35517  0.34882  1.0000
  H   H13       1.0  0.15938  0.40743  0.49040  1.0000
  C   C21       1.0  0.04853  0.80220  0.34845  1.0000
  C   C22       1.0  0.08368  0.82022  0.34849  1.0000
  H   H14       1.0  0.03743  0.81632  0.34855  1.0000
  C   C23       1.0  0.21661  0.75007  0.34837  1.0000
  C   C24       1.0  0.19861  0.76721  0.34855  1.0000
  H   H15       1.0  0.20248  0.72485  0.34837  1.0000
  H   H16       1.0  0.22865  0.53371  0.34849  1.0000
  N   N5        1.0  0.14917  0.75284  0.27043  1.0000
  C   C25       1.0  0.11944  0.75181  0.26758  1.0000
  C   C26       1.0  0.10301  0.75166  0.34832  1.0000
  H   H17       1.0  0.11146  0.75550  0.20644  1.0000
  N   N6        1.0  0.11877  0.86966  0.27043  1.0000
  C   C27       1.0  0.14747  0.89939  0.26771  1.0000
  C   C28       1.0  0.16372  0.91589  0.34844  1.0000
  H   H18       1.0  0.15916  0.90737  0.20659  1.0000
  C   C29       1.0  0.02932  0.76657  0.34836  1.0000
  C   C30       1.0  0.10093  0.80253  0.34856  1.0000
  C   C31       1.0  0.08385  0.76758  0.34851  1.0000
  C   C32       1.0  0.04869  0.75031  0.34831  1.0000
  H   H19       1.0  0.12648  0.81537  0.34862  1.0000
  H   H20       1.0  0.03769  0.72509  0.34816  1.0000
  H   H21       1.0  0.22887  0.69872  0.34825  1.0000
  C   C33       1.0  0.21631  0.80215  0.34874  1.0000
  H   H22       1.0  0.20350  0.81488  0.34887  1.0000
  C   C34       1.0  0.21666  0.91796  0.34861  1.0000
  C   C35       1.0  0.19879  0.93504  0.34851  1.0000
  C   C36       1.0  0.21670  0.97020  0.34828  1.0000
  H   H23       1.0  0.20393  0.89241  0.34875  1.0000
  H   H24       1.0  0.20248  0.98120  0.34815  1.0000
  C   C37       1.0  0.11942  0.75204  0.42940  1.0000
  N   N7        1.0  0.14915  0.75306  0.42700  1.0000
  C   C38       1.0  0.16365  0.75129  0.34888  1.0000
  H   H25       1.0  0.11141  0.75584  0.49036  1.0000
  C   C39       1.0  0.14761  0.89943  0.42940  1.0000
  N   N8        1.0  0.11891  0.86969  0.42697  1.0000
  C   C40       1.0  0.10269  0.85517  0.34882  1.0000
  H   H26       1.0  0.15938  0.90743  0.49040  1.0000
  C   C41       1.0  0.30600  0.26497  0.34839  1.0000
  C   C42       1.0  0.27102  0.07995  0.34858  1.0000
  C   C43       1.0  0.25388  0.04481  0.34840  1.0000
  C   C44       1.0  0.26875  0.47034  0.34835  1.0000
  C   C45       1.0  0.25159  0.43520  0.34847  1.0000
  H   H27       1.0  0.29397  0.48143  0.34840  1.0000
  N   N9        1.0  0.26592  0.39998  0.27062  1.0000
  C   C46       1.0  0.26700  0.37131  0.26778  1.0000
  C   C47       1.0  0.26723  0.35507  0.34851  1.0000
  H   H28       1.0  0.26329  0.35963  0.20665  1.0000
  N   N10       1.0  0.25669  0.11503  0.27066  1.0000
  C   C48       1.0  0.25563  0.14371  0.26761  1.0000
  C   C49       1.0  0.25538  0.15996  0.34826  1.0000
  H   H29       1.0  0.25939  0.15538  0.20645  1.0000
  C   C50       1.0  0.27036  0.24855  0.34834  1.0000
  C   C51       1.0  0.25408  0.21293  0.34834  1.0000
  C   C52       1.0  0.27134  0.19504  0.34847  1.0000
  C   C53       1.0  0.30629  0.21289  0.34850  1.0000
  C   C54       1.0  0.25224  0.26648  0.34834  1.0000
  C   C55       1.0  0.25127  0.32000  0.34860  1.0000
  C   C56       1.0  0.26852  0.30211  0.34836  1.0000
  H   H30       1.0  0.29374  0.31631  0.34823  1.0000
  C   C57       1.0  0.27030  0.02560  0.34828  1.0000
  C   C58       1.0  0.30593  0.04496  0.34824  1.0000
  C   C59       1.0  0.30595  0.09720  0.34879  1.0000
  C   C60       1.0  0.25233  0.48956  0.34828  1.0000
  C   C61       1.0  0.26690  0.37119  0.42942  1.0000
  N   N11       1.0  0.26582  0.39986  0.42682  1.0000
  C   C62       1.0  0.26748  0.41617  0.34882  1.0000
  H   H31       1.0  0.26314  0.35944  0.49045  1.0000
  C   C63       1.0  0.25566  0.14393  0.42941  1.0000
  N   N12       1.0  0.25673  0.11525  0.42708  1.0000
  C   C64       1.0  0.25510  0.09895  0.34911  1.0000
  H   H32       1.0  0.25939  0.15573  0.49036  1.0000
  C   C65       1.0  0.30600  0.76497  0.34839  1.0000
  C   C66       1.0  0.27102  0.57995  0.34858  1.0000
  C   C67       1.0  0.25388  0.54481  0.34840  1.0000
  C   C68       1.0  0.26875  0.97034  0.34835  1.0000
  C   C69       1.0  0.25159  0.93520  0.34847  1.0000
  H   H33       1.0  0.29397  0.98143  0.34840  1.0000
  N   N13       1.0  0.26592  0.89998  0.27062  1.0000
  C   C70       1.0  0.26701  0.87131  0.26778  1.0000
  C   C71       1.0  0.26723  0.85507  0.34851  1.0000
  H   H34       1.0  0.26329  0.85963  0.20665  1.0000
  N   N14       1.0  0.25670  0.61503  0.27066  1.0000
  C   C72       1.0  0.25563  0.64371  0.26761  1.0000
  C   C73       1.0  0.25538  0.65996  0.34826  1.0000
  H   H35       1.0  0.25939  0.65538  0.20645  1.0000
  C   C74       1.0  0.27036  0.74855  0.34834  1.0000
  C   C75       1.0  0.25408  0.71293  0.34834  1.0000
  C   C76       1.0  0.27134  0.69504  0.34847  1.0000
  C   C77       1.0  0.30630  0.71289  0.34850  1.0000
  C   C78       1.0  0.25225  0.76648  0.34834  1.0000
  C   C79       1.0  0.25127  0.82000  0.34860  1.0000
  C   C80       1.0  0.26852  0.80211  0.34836  1.0000
  H   H36       1.0  0.29374  0.81631  0.34823  1.0000
  C   C81       1.0  0.27030  0.52560  0.34828  1.0000
  C   C82       1.0  0.30593  0.54496  0.34824  1.0000
  C   C83       1.0  0.30595  0.59720  0.34879  1.0000
  C   C84       1.0  0.25233  0.98955  0.34828  1.0000
  C   C85       1.0  0.26690  0.87119  0.42942  1.0000
  N   N15       1.0  0.26582  0.89986  0.42682  1.0000
  C   C86       1.0  0.26748  0.91617  0.34882  1.0000
  H   H37       1.0  0.26314  0.85944  0.49045  1.0000
  C   C87       1.0  0.25566  0.64393  0.42941  1.0000
  N   N16       1.0  0.25673  0.61526  0.42708  1.0000
  C   C88       1.0  0.25510  0.59896  0.34911  1.0000
  H   H38       1.0  0.25939  0.65573  0.49036  1.0000
  C   C89       1.0  0.32400  0.24783  0.34845  1.0000
  H   H39       1.0  0.32012  0.29019  0.34847  1.0000
  C   C90       1.0  0.35892  0.09928  0.34848  1.0000
  H   H40       1.0  0.31911  0.20016  0.34855  1.0000
  C   C91       1.0  0.32383  0.08012  0.34855  1.0000
  H   H41       1.0  0.32014  0.03395  0.34804  1.0000
  H   H42       1.0  0.31867  0.12275  0.34899  1.0000
  C   C92       1.0  0.35895  0.26375  0.34880  1.0000
  C   C93       1.0  0.32400  0.74783  0.34845  1.0000
  H   H43       1.0  0.32012  0.79019  0.34847  1.0000
  C   C94       1.0  0.35892  0.59928  0.34848  1.0000
  H   H44       1.0  0.31911  0.70016  0.34855  1.0000
  C   C95       1.0  0.32383  0.58012  0.34855  1.0000
  H   H45       1.0  0.32014  0.53396  0.34804  1.0000
  H   H46       1.0  0.31868  0.62275  0.34899  1.0000
  C   C96       1.0  0.35895  0.76375  0.34880  1.0000
  C   C97       1.0  0.43891  0.19481  0.34851  1.0000
  C   C98       1.0  0.47406  0.21282  0.34845  1.0000
  H   H47       1.0  0.48516  0.19870  0.34854  1.0000
  N   N17       1.0  0.37344  0.26219  0.27037  1.0000
  C   C99       1.0  0.40317  0.26322  0.26756  1.0000
  C   C100      1.0  0.41958  0.26338  0.34832  1.0000
  H   H48       1.0  0.41116  0.25952  0.20645  1.0000
  N   N18       1.0  0.40380  0.14538  0.27041  1.0000
  C   C101      1.0  0.37509  0.11565  0.26760  1.0000
  H   H49       1.0  0.36338  0.10767  0.20653  1.0000
  C   C102      1.0  0.49327  0.24846  0.34836  1.0000
  C   C103      1.0  0.47390  0.26472  0.34833  1.0000
  C   C104      1.0  0.43874  0.24745  0.34856  1.0000
  C   C105      1.0  0.42167  0.21250  0.34861  1.0000
  H   H50       1.0  0.48490  0.28993  0.34815  1.0000
  H   H51       1.0  0.39611  0.19967  0.34868  1.0000
  C   C106      1.0  0.40318  0.26300  0.42939  1.0000
  N   N19       1.0  0.37345  0.26199  0.42694  1.0000
  H   H52       1.0  0.41118  0.25921  0.49036  1.0000
  C   C107      1.0  0.37496  0.11562  0.42956  1.0000
  N   N20       1.0  0.40367  0.14535  0.42702  1.0000
  C   C108      1.0  0.41989  0.15986  0.34883  1.0000
  H   H53       1.0  0.36317  0.10761  0.49054  1.0000
  C   C109      1.0  0.43891  0.69481  0.34851  1.0000
  C   C110      1.0  0.47406  0.71282  0.34845  1.0000
  H   H54       1.0  0.48516  0.69870  0.34854  1.0000
  N   N21       1.0  0.37344  0.76219  0.27037  1.0000
  C   C111      1.0  0.40317  0.76322  0.26756  1.0000
  C   C112      1.0  0.41959  0.76338  0.34832  1.0000
  H   H55       1.0  0.41116  0.75952  0.20645  1.0000
  N   N22       1.0  0.40380  0.64538  0.27041  1.0000
  C   C113      1.0  0.37509  0.61565  0.26760  1.0000
  H   H56       1.0  0.36338  0.60767  0.20653  1.0000
  C   C114      1.0  0.49327  0.74846  0.34836  1.0000
  C   C115      1.0  0.47390  0.76472  0.34833  1.0000
  C   C116      1.0  0.43874  0.74745  0.34856  1.0000
  C   C117      1.0  0.42167  0.71250  0.34861  1.0000
  H   H57       1.0  0.48490  0.78994  0.34815  1.0000
  H   H58       1.0  0.39611  0.69967  0.34868  1.0000
  C   C118      1.0  0.40318  0.76301  0.42939  1.0000
  N   N23       1.0  0.37345  0.76199  0.42694  1.0000
  H   H59       1.0  0.41118  0.75921  0.49036  1.0000
  C   C119      1.0  0.37496  0.61562  0.42956  1.0000
  N   N24       1.0  0.40367  0.64535  0.42702  1.0000
  C   C120      1.0  0.41989  0.65986  0.34883  1.0000
  H   H60       1.0  0.36317  0.60761  0.49054  1.0000
  C   C121      1.0  0.93891  0.19481  0.34851  1.0000
  C   C122      1.0  0.97406  0.21282  0.34845  1.0000
  H   H61       1.0  0.98516  0.19870  0.34854  1.0000
  C   C123      1.0  0.54853  0.30220  0.34845  1.0000
  C   C124      1.0  0.58368  0.32022  0.34849  1.0000
  H   H62       1.0  0.53743  0.31632  0.34855  1.0000
  C   C125      1.0  0.82400  0.24783  0.34845  1.0000
  C   C126      1.0  0.80600  0.26497  0.34839  1.0000
  H   H63       1.0  0.82012  0.29019  0.34847  1.0000
  C   C127      1.0  0.71661  0.25007  0.34837  1.0000
  C   C128      1.0  0.69860  0.26721  0.34855  1.0000
  H   H64       1.0  0.70248  0.22485  0.34837  1.0000
  C   C129      1.0  0.77102  0.07995  0.34858  1.0000
  C   C130      1.0  0.75388  0.04481  0.34840  1.0000
  H   H65       1.0  0.72865  0.03372  0.34849  1.0000
  C   C131      1.0  0.76875  0.47034  0.34835  1.0000
  C   C132      1.0  0.75160  0.43520  0.34847  1.0000
  H   H66       1.0  0.79397  0.48143  0.34840  1.0000
  N   N25       1.0  0.64917  0.25284  0.27043  1.0000
  C   C133      1.0  0.61944  0.25181  0.26758  1.0000
  C   C134      1.0  0.60301  0.25166  0.34832  1.0000
  H   H67       1.0  0.61146  0.25550  0.20644  1.0000
  N   N26       1.0  0.76592  0.39998  0.27062  1.0000
  C   C135      1.0  0.76700  0.37131  0.26778  1.0000
  C   C136      1.0  0.76723  0.35507  0.34851  1.0000
  H   H68       1.0  0.76329  0.35963  0.20665  1.0000
  N   N27       1.0  0.61877  0.36966  0.27043  1.0000
  C   C137      1.0  0.64747  0.39940  0.26771  1.0000
  C   C138      1.0  0.66372  0.41589  0.34844  1.0000
  H   H69       1.0  0.65916  0.40737  0.20659  1.0000
  N   N28       1.0  0.87344  0.26219  0.27037  1.0000
  C   C139      1.0  0.90317  0.26322  0.26756  1.0000
  C   C140      1.0  0.91959  0.26338  0.34832  1.0000
  H   H70       1.0  0.91116  0.25952  0.20645  1.0000
  N   N29       1.0  0.75669  0.11503  0.27066  1.0000
  C   C141      1.0  0.75563  0.14371  0.26761  1.0000
  C   C142      1.0  0.75538  0.15996  0.34826  1.0000
  H   H71       1.0  0.75939  0.15538  0.20645  1.0000
  N   N30       1.0  0.90380  0.14538  0.27041  1.0000
  C   C143      1.0  0.87509  0.11565  0.26760  1.0000
  C   C144      1.0  0.85892  0.09928  0.34848  1.0000
  H   H72       1.0  0.86338  0.10767  0.20653  1.0000
  C   C145      1.0  0.99327  0.24846  0.34836  1.0000
  C   C146      1.0  0.97390  0.26472  0.34833  1.0000
  C   C147      1.0  0.93875  0.24745  0.34856  1.0000
  C   C148      1.0  0.92167  0.21250  0.34861  1.0000
  H   H73       1.0  0.98490  0.28993  0.34815  1.0000
  H   H74       1.0  0.89611  0.19967  0.34868  1.0000
  C   C149      1.0  0.52932  0.26657  0.34836  1.0000
  C   C150      1.0  0.60093  0.30253  0.34856  1.0000
  C   C151      1.0  0.58385  0.26758  0.34851  1.0000
  C   C152      1.0  0.54869  0.25031  0.34831  1.0000
  H   H75       1.0  0.62648  0.31537  0.34862  1.0000
  H   H76       1.0  0.53769  0.22509  0.34816  1.0000
  C   C153      1.0  0.77036  0.24855  0.34834  1.0000
  C   C154      1.0  0.75408  0.21293  0.34834  1.0000
  C   C155      1.0  0.77134  0.19504  0.34847  1.0000
  C   C156      1.0  0.80629  0.21289  0.34850  1.0000
  H   H77       1.0  0.72887  0.19872  0.34825  1.0000
  H   H78       1.0  0.81911  0.20016  0.34855  1.0000
  C   C157      1.0  0.75224  0.26648  0.34834  1.0000
  C   C158      1.0  0.71631  0.30215  0.34874  1.0000
  C   C159      1.0  0.75127  0.32000  0.34860  1.0000
  C   C160      1.0  0.76852  0.30211  0.34836  1.0000
  H   H79       1.0  0.70350  0.31488  0.34887  1.0000
  H   H80       1.0  0.79374  0.31631  0.34823  1.0000
  C   C161      1.0  0.77029  0.02560  0.34828  1.0000
  C   C162      1.0  0.80593  0.04496  0.34824  1.0000
  C   C163      1.0  0.82383  0.08012  0.34855  1.0000
  C   C164      1.0  0.80595  0.09720  0.34879  1.0000
  H   H81       1.0  0.82014  0.03395  0.34804  1.0000
  H   H82       1.0  0.81868  0.12275  0.34899  1.0000
  C   C165      1.0  0.75233  0.48956  0.34828  1.0000
  C   C166      1.0  0.71666  0.41796  0.34861  1.0000
  C   C167      1.0  0.69879  0.43504  0.34851  1.0000
  C   C168      1.0  0.71670  0.47020  0.34828  1.0000
  H   H83       1.0  0.70393  0.39241  0.34875  1.0000
  H   H84       1.0  0.70248  0.48120  0.34815  1.0000
  C   C169      1.0  0.61942  0.25204  0.42940  1.0000
  N   N31       1.0  0.64915  0.25306  0.42700  1.0000
  C   C170      1.0  0.66365  0.25129  0.34888  1.0000
  H   H85       1.0  0.61141  0.25584  0.49036  1.0000
  C   C171      1.0  0.76690  0.37119  0.42942  1.0000
  N   N32       1.0  0.76582  0.39986  0.42682  1.0000
  C   C172      1.0  0.76748  0.41617  0.34882  1.0000
  H   H86       1.0  0.76314  0.35944  0.49045  1.0000
  C   C173      1.0  0.64761  0.39943  0.42940  1.0000
  N   N33       1.0  0.61891  0.36969  0.42697  1.0000
  C   C174      1.0  0.60269  0.35517  0.34882  1.0000
  H   H87       1.0  0.65938  0.40743  0.49040  1.0000
  C   C175      1.0  0.90318  0.26300  0.42939  1.0000
  N   N34       1.0  0.87345  0.26199  0.42694  1.0000
  C   C176      1.0  0.85895  0.26375  0.34880  1.0000
  H   H88       1.0  0.91118  0.25921  0.49036  1.0000
  C   C177      1.0  0.75566  0.14393  0.42941  1.0000
  N   N35       1.0  0.75673  0.11525  0.42708  1.0000
  C   C178      1.0  0.75509  0.09895  0.34911  1.0000
  H   H89       1.0  0.75939  0.15573  0.49036  1.0000
  C   C179      1.0  0.87496  0.11562  0.42956  1.0000
  N   N36       1.0  0.90367  0.14535  0.42702  1.0000
  C   C180      1.0  0.91989  0.15986  0.34883  1.0000
  H   H90       1.0  0.86317  0.10761  0.49054  1.0000
  C   C181      1.0  0.93891  0.69481  0.34851  1.0000
  C   C182      1.0  0.97406  0.71282  0.34845  1.0000
  H   H91       1.0  0.98516  0.69870  0.34854  1.0000
  C   C183      1.0  0.54853  0.80220  0.34845  1.0000
  C   C184      1.0  0.58368  0.82022  0.34849  1.0000
  H   H92       1.0  0.53743  0.81632  0.34855  1.0000
  C   C185      1.0  0.82400  0.74783  0.34845  1.0000
  C   C186      1.0  0.80600  0.76497  0.34839  1.0000
  H   H93       1.0  0.82012  0.79019  0.34847  1.0000
  C   C187      1.0  0.71661  0.75007  0.34837  1.0000
  C   C188      1.0  0.69861  0.76721  0.34855  1.0000
  H   H94       1.0  0.70248  0.72485  0.34837  1.0000
  C   C189      1.0  0.77102  0.57995  0.34858  1.0000
  C   C190      1.0  0.75388  0.54481  0.34840  1.0000
  H   H95       1.0  0.72865  0.53371  0.34849  1.0000
  C   C191      1.0  0.76875  0.97034  0.34835  1.0000
  C   C192      1.0  0.75160  0.93520  0.34847  1.0000
  H   H96       1.0  0.79397  0.98143  0.34840  1.0000
  N   N37       1.0  0.64917  0.75284  0.27043  1.0000
  C   C193      1.0  0.61944  0.75181  0.26758  1.0000
  C   C194      1.0  0.60302  0.75166  0.34832  1.0000
  H   H97       1.0  0.61146  0.75550  0.20644  1.0000
  N   N38       1.0  0.76592  0.89998  0.27062  1.0000
  C   C195      1.0  0.76701  0.87131  0.26778  1.0000
  C   C196      1.0  0.76723  0.85507  0.34851  1.0000
  H   H98       1.0  0.76329  0.85963  0.20665  1.0000
  N   N39       1.0  0.61877  0.86966  0.27043  1.0000
  C   C197      1.0  0.64747  0.89939  0.26771  1.0000
  C   C198      1.0  0.66372  0.91589  0.34844  1.0000
  H   H99       1.0  0.65916  0.90737  0.20659  1.0000
  N   N40       1.0  0.87344  0.76219  0.27037  1.0000
  C   C199      1.0  0.90317  0.76322  0.26756  1.0000
  C   C200      1.0  0.91959  0.76338  0.34832  1.0000
  H   H100      1.0  0.91116  0.75952  0.20645  1.0000
  N   N41       1.0  0.75670  0.61503  0.27066  1.0000
  C   C201      1.0  0.75563  0.64371  0.26761  1.0000
  C   C202      1.0  0.75538  0.65996  0.34826  1.0000
  H   H101      1.0  0.75939  0.65538  0.20645  1.0000
  N   N42       1.0  0.90380  0.64538  0.27041  1.0000
  C   C203      1.0  0.87509  0.61565  0.26760  1.0000
  C   C204      1.0  0.85892  0.59928  0.34848  1.0000
  H   H102      1.0  0.86338  0.60767  0.20653  1.0000
  C   C205      1.0  0.99327  0.74846  0.34836  1.0000
  C   C206      1.0  0.97390  0.76472  0.34833  1.0000
  C   C207      1.0  0.93875  0.74745  0.34856  1.0000
  C   C208      1.0  0.92167  0.71250  0.34861  1.0000
  H   H103      1.0  0.98490  0.78994  0.34815  1.0000
  H   H104      1.0  0.89611  0.69967  0.34868  1.0000
  C   C209      1.0  0.52932  0.76657  0.34836  1.0000
  C   C210      1.0  0.60093  0.80253  0.34856  1.0000
  C   C211      1.0  0.58385  0.76758  0.34851  1.0000
  C   C212      1.0  0.54869  0.75031  0.34831  1.0000
  H   H105      1.0  0.62648  0.81537  0.34862  1.0000
  H   H106      1.0  0.53769  0.72509  0.34816  1.0000
  C   C213      1.0  0.77036  0.74855  0.34834  1.0000
  C   C214      1.0  0.75408  0.71293  0.34834  1.0000
  C   C215      1.0  0.77134  0.69504  0.34847  1.0000
  C   C216      1.0  0.80630  0.71289  0.34850  1.0000
  H   H107      1.0  0.72887  0.69872  0.34825  1.0000
  H   H108      1.0  0.81911  0.70016  0.34855  1.0000
  C   C217      1.0  0.75225  0.76648  0.34834  1.0000
  C   C218      1.0  0.71632  0.80215  0.34874  1.0000
  C   C219      1.0  0.75127  0.82000  0.34860  1.0000
  C   C220      1.0  0.76852  0.80211  0.34836  1.0000
  H   H109      1.0  0.70350  0.81488  0.34887  1.0000
  H   H110      1.0  0.79374  0.81631  0.34823  1.0000
  C   C221      1.0  0.77030  0.52560  0.34828  1.0000
  C   C222      1.0  0.80593  0.54496  0.34824  1.0000
  C   C223      1.0  0.82383  0.58012  0.34855  1.0000
  C   C224      1.0  0.80595  0.59720  0.34879  1.0000
  H   H111      1.0  0.82014  0.53396  0.34804  1.0000
  H   H112      1.0  0.81868  0.62275  0.34899  1.0000
  C   C225      1.0  0.75233  0.98955  0.34828  1.0000
  C   C226      1.0  0.71666  0.91796  0.34861  1.0000
  C   C227      1.0  0.69879  0.93504  0.34851  1.0000
  C   C228      1.0  0.71670  0.97020  0.34828  1.0000
  H   H113      1.0  0.70393  0.89241  0.34875  1.0000
  H   H114      1.0  0.70249  0.98120  0.34815  1.0000
  C   C229      1.0  0.61942  0.75204  0.42940  1.0000
  N   N43       1.0  0.64915  0.75306  0.42700  1.0000
  C   C230      1.0  0.66365  0.75129  0.34888  1.0000
  H   H115      1.0  0.61141  0.75584  0.49036  1.0000
  C   C231      1.0  0.76690  0.87119  0.42942  1.0000
  N   N44       1.0  0.76582  0.89986  0.42682  1.0000
  C   C232      1.0  0.76748  0.91617  0.34882  1.0000
  H   H116      1.0  0.76314  0.85944  0.49045  1.0000
  C   C233      1.0  0.64761  0.89943  0.42940  1.0000
  N   N45       1.0  0.61891  0.86969  0.42697  1.0000
  C   C234      1.0  0.60269  0.85517  0.34882  1.0000
  H   H117      1.0  0.65938  0.90743  0.49040  1.0000
  C   C235      1.0  0.90318  0.76301  0.42939  1.0000
  N   N46       1.0  0.87345  0.76199  0.42694  1.0000
  C   C236      1.0  0.85895  0.76375  0.34880  1.0000
  H   H118      1.0  0.91118  0.75921  0.49036  1.0000
  C   C237      1.0  0.75566  0.64393  0.42941  1.0000
  N   N47       1.0  0.75673  0.61526  0.42708  1.0000
  C   C238      1.0  0.75510  0.59896  0.34911  1.0000
  H   H119      1.0  0.75940  0.65573  0.49036  1.0000
  C   C239      1.0  0.87496  0.61562  0.42956  1.0000
  N   N48       1.0  0.90367  0.64535  0.42702  1.0000
  C   C240      1.0  0.91989  0.65986  0.34883  1.0000
  H   H120      1.0  0.86317  0.60761  0.49054  1.0000
