data_image0
_chemical_formula_structural       C4HC4HNCHCHC2H2N2CHCHC2NC8HC7HCH4N3C8HC7HCH4N4C2HCNCHCHNCNCHCHCNCHCHCNCHCHC6H2N3CNHC2NHCHC2HCHC2NHCHC2NHCHC2NHCH
_chemical_formula_sum              "C84 H42 N24"
_cell_length_a       30.2781
_cell_length_b       30.2781
_cell_length_c       14.7461
_cell_angle_alpha    90.0004
_cell_angle_beta     89.9996
_cell_angle_gamma    120

_space_group_name_H-M_alt    "P 1"
_space_group_IT_number       1

loop_
  _space_group_symop_operation_xyz
  'x, y, z'

loop_
  _atom_site_type_symbol
  _atom_site_label
  _atom_site_symmetry_multiplicity
  _atom_site_fract_x
  _atom_site_fract_y
  _atom_site_fract_z
  _atom_site_occupancy
  C   C1        1.0  0.05600  0.55871  0.34849  1.0000
  C   C2        1.0  0.05859  0.46658  0.34385  1.0000
  C   C3        1.0  0.10522  0.51314  0.34839  1.0000
  C   C4        1.0  0.10376  0.55966  0.34726  1.0000
  H   H1        1.0  0.05920  0.43307  0.34500  1.0000
  C   C5        1.0  0.05397  0.60520  0.34848  1.0000
  C   C6        1.0  0.05138  0.69733  0.34381  1.0000
  C   C7        1.0  0.09901  0.69952  0.34433  1.0000
  C   C8        1.0  0.10012  0.65316  0.34632  1.0000
  H   H2        1.0  0.05077  0.73084  0.34498  1.0000
  N   N1        1.0  0.21850  0.47045  0.34185  1.0000
  C   C9        1.0  0.21060  0.83220  0.34762  1.0000
  H   H3        1.0  0.20544  0.89776  0.31235  1.0000
  C   C10       1.0  0.15878  0.79484  0.33883  1.0000
  H   H4        1.0  0.13249  0.80561  0.32439  1.0000
  C   C11       1.0  0.14815  0.60785  0.33782  1.0000
  C   C12       1.0  0.14670  0.65329  0.33970  1.0000
  H   H5        1.0  0.18050  0.68666  0.33180  1.0000
  H   H6        1.0  0.18238  0.61120  0.32264  1.0000
  N   N2        1.0  0.14672  0.50677  0.35552  1.0000
  N   N3        1.0  0.14378  0.74468  0.34542  1.0000
  C   C13       1.0  0.19681  0.53562  0.37678  1.0000
  H   H7        1.0  0.20963  0.57102  0.40333  1.0000
  C   C14       1.0  0.25224  0.45344  0.33218  1.0000
  H   H8        1.0  0.23918  0.41661  0.31236  1.0000
  C   C15       1.0  0.22921  0.88469  0.33216  1.0000
  C   C16       1.0  0.23233  0.51879  0.36825  1.0000
  N   N4        1.0  0.24527  0.81852  0.37328  1.0000
  C   C17       1.0  0.57823  0.60622  0.34848  1.0000
  C   C18       1.0  0.62618  0.60802  0.34631  1.0000
  C   C19       1.0  0.67255  0.65549  0.34433  1.0000
  C   C20       1.0  0.67036  0.70094  0.34383  1.0000
  C   C21       1.0  0.62380  0.70101  0.34831  1.0000
  C   C22       1.0  0.57728  0.65303  0.34726  1.0000
  C   C23       1.0  0.62632  0.56157  0.33963  1.0000
  C   C24       1.0  0.52909  0.64924  0.33792  1.0000
  H   H9        1.0  0.70387  0.73506  0.34499  1.0000
  C   C25       1.0  0.53174  0.55770  0.34849  1.0000
  C   C26       1.0  0.53268  0.51088  0.34724  1.0000
  C   C27       1.0  0.48617  0.46290  0.34836  1.0000
  C   C28       1.0  0.43961  0.46298  0.34393  1.0000
  C   C29       1.0  0.43742  0.50842  0.34440  1.0000
  C   C30       1.0  0.48378  0.55589  0.34639  1.0000
  C   C31       1.0  0.58087  0.51469  0.33775  1.0000
  H   H10       1.0  0.40610  0.42886  0.34503  1.0000
  C   C32       1.0  0.48365  0.60234  0.33971  1.0000
  H   H11       1.0  0.58423  0.48380  0.32265  1.0000
  H   H12       1.0  0.65969  0.56114  0.33181  1.0000
  H   H13       1.0  0.45029  0.60278  0.33180  1.0000
  H   H14       1.0  0.52572  0.68009  0.32255  1.0000
  N   N5        1.0  0.63017  0.74888  0.35548  1.0000
  N   N6        1.0  0.39226  0.50804  0.34547  1.0000
  N   N7        1.0  0.47980  0.41504  0.35551  1.0000
  C   C33       1.0  0.53072  0.08094  0.34864  1.0000
  C   C34       1.0  0.52892  0.12709  0.34645  1.0000
  C   C35       1.0  0.48145  0.12599  0.34440  1.0000
  C   C36       1.0  0.43600  0.07835  0.34391  1.0000
  C   C37       1.0  0.43592  0.03172  0.34842  1.0000
  C   C38       1.0  0.48391  0.03319  0.34741  1.0000
  C   C39       1.0  0.57537  0.17368  0.33982  1.0000
  C   C40       1.0  0.48770  0.98879  0.33799  1.0000
  H   H15       1.0  0.40188  0.07775  0.34496  1.0000
  C   C41       1.0  0.57924  0.08297  0.34865  1.0000
  C   C42       1.0  0.62605  0.13073  0.34742  1.0000
  C   C43       1.0  0.67403  0.13219  0.34846  1.0000
  C   C44       1.0  0.67396  0.08556  0.34397  1.0000
  C   C45       1.0  0.62851  0.03792  0.34443  1.0000
  C   C46       1.0  0.58104  0.03682  0.34649  1.0000
  C   C47       1.0  0.62226  0.17512  0.33797  1.0000
  H   H16       1.0  0.70807  0.08617  0.34494  1.0000
  C   C48       1.0  0.53459  0.99023  0.33986  1.0000
  H   H17       1.0  0.65312  0.20932  0.32255  1.0000
  H   H18       1.0  0.57580  0.20746  0.33173  1.0000
  H   H19       1.0  0.53416  0.95644  0.33173  1.0000
  H   H20       1.0  0.45685  0.95458  0.32253  1.0000
  N   N8        1.0  0.38805  0.99022  0.35550  1.0000
  N   N9        1.0  0.48106  0.17076  0.34547  1.0000
  N   N10       1.0  0.62890  0.99315  0.34545  1.0000
  N   N11       1.0  0.72190  0.17369  0.35554  1.0000
  C   C49       1.0  0.30474  0.48733  0.34766  1.0000
  C   C50       1.0  0.34210  0.47287  0.33888  1.0000
  H   H21       1.0  0.33133  0.43581  0.32443  1.0000
  C   C51       1.0  0.68351  0.90774  0.33225  1.0000
  N   N12       1.0  0.66650  0.85698  0.34190  1.0000
  C   C52       1.0  0.64961  0.92634  0.34765  1.0000
  H   H22       1.0  0.72033  0.93150  0.31239  1.0000
  C   C53       1.0  0.66406  0.97814  0.33881  1.0000
  H   H23       1.0  0.70113  0.00445  0.32447  1.0000
  N   N13       1.0  0.27996  0.91844  0.34183  1.0000
  C   C54       1.0  0.85773  0.71049  0.33228  1.0000
  N   N14       1.0  0.89148  0.69348  0.34193  1.0000
  C   C55       1.0  0.80523  0.67659  0.34764  1.0000
  H   H24       1.0  0.87080  0.74732  0.31244  1.0000
  C   C56       1.0  0.76787  0.69104  0.33876  1.0000
  H   H25       1.0  0.77864  0.72812  0.32449  1.0000
  C   C57       1.0  0.42647  0.25618  0.33217  1.0000
  N   N15       1.0  0.44348  0.30694  0.34185  1.0000
  C   C58       1.0  0.46036  0.23757  0.34765  1.0000
  H   H26       1.0  0.38964  0.23241  0.31233  1.0000
  C   C59       1.0  0.44590  0.18576  0.33884  1.0000
  H   H27       1.0  0.40884  0.15946  0.32440  1.0000
  C   C60       1.0  0.88076  0.27921  0.33225  1.0000
  N   N16       1.0  0.83001  0.24546  0.34191  1.0000
  C   C61       1.0  0.89936  0.33171  0.34761  1.0000
  H   H28       1.0  0.90453  0.26614  0.31241  1.0000
  C   C62       1.0  0.95117  0.36907  0.33873  1.0000
  H   H29       1.0  0.97748  0.35830  0.32446  1.0000
  C   C63       1.0  0.00985  0.51076  0.34633  1.0000
  C   C64       1.0  0.01095  0.46440  0.34433  1.0000
  C   C65       1.0  0.96327  0.51063  0.33965  1.0000
  C   C66       1.0  0.00621  0.60425  0.34726  1.0000
  C   C67       1.0  0.00474  0.65077  0.34831  1.0000
  C   C68       1.0  0.96180  0.55606  0.33796  1.0000
  H   H30       1.0  0.92760  0.55271  0.32250  1.0000
  H   H31       1.0  0.92946  0.47726  0.33175  1.0000
  N   N17       1.0  0.96618  0.41923  0.34535  1.0000
  N   N18       1.0  0.96324  0.65714  0.35548  1.0000
  N   N19       1.0  0.71770  0.65588  0.34537  1.0000
  C   C69       1.0  0.28474  0.55237  0.38497  1.0000
  N   N20       1.0  0.31841  0.53567  0.37334  1.0000
  H   H32       1.0  0.29819  0.58941  0.40398  1.0000
  C   C70       1.0  0.61815  0.82247  0.36826  1.0000
  C   C71       1.0  0.58457  0.84130  0.38499  1.0000
  N   N21       1.0  0.60126  0.89167  0.37330  1.0000
  H   H33       1.0  0.54750  0.81769  0.40387  1.0000
  C   C72       1.0  0.60132  0.77011  0.37674  1.0000
  H   H34       1.0  0.56590  0.74752  0.40326  1.0000
  C   C73       1.0  0.31446  0.90460  0.36820  1.0000
  C   C74       1.0  0.29564  0.85219  0.38489  1.0000
  H   H35       1.0  0.31924  0.83874  0.40390  1.0000
  C   C75       1.0  0.36682  0.94013  0.37672  1.0000
  H   H36       1.0  0.38941  0.92730  0.40325  1.0000
  C   C76       1.0  0.87763  0.64513  0.36825  1.0000
  C   C77       1.0  0.82522  0.61154  0.38495  1.0000
  N   N22       1.0  0.79155  0.62823  0.37325  1.0000
  H   H37       1.0  0.81176  0.57448  0.40380  1.0000
  C   C78       1.0  0.91316  0.62829  0.37673  1.0000
  H   H38       1.0  0.90032  0.59287  0.40322  1.0000
  C   C79       1.0  0.49181  0.34144  0.36825  1.0000
  C   C80       1.0  0.52540  0.32261  0.38498  1.0000
  N   N23       1.0  0.50870  0.27224  0.37334  1.0000
  H   H39       1.0  0.56244  0.34621  0.40400  1.0000
  C   C81       1.0  0.50865  0.39380  0.37677  1.0000
  H   H40       1.0  0.54405  0.41638  0.40333  1.0000
  C   C82       1.0  0.79550  0.25931  0.36824  1.0000
  C   C83       1.0  0.81432  0.31172  0.38493  1.0000
  N   N24       1.0  0.86469  0.34540  0.37322  1.0000
  H   H41       1.0  0.79072  0.32518  0.40378  1.0000
  C   C84       1.0  0.74314  0.22378  0.37676  1.0000
  H   H42       1.0  0.72056  0.23662  0.40327  1.0000
