data_image0
_chemical_formula_structural       C2HCHC3NH2CNOC2NOCH2OCHC2OHC3OC2NHC4OHC4HOC4OHC4HOC4OHC3HNO2C5H2NH2NO2C2H2NH2C5H2NH2NO2C5H2NH2NO2C5H2NH2NO2C2H2C4H4C4H4C3H2NH2C3HC4HN2H2O2C4HNO2C3HC4HN2H2O2C3HC4HN2H2O2C3HC4HN2H2O2
_chemical_formula_sum              "C108 H66 N24 O30"
_cell_length_a       31.9941
_cell_length_b       31.9941
_cell_length_c       14.7959
_cell_angle_alpha    90
_cell_angle_beta     90
_cell_angle_gamma    120

_space_group_name_H-M_alt    "P 1"
_space_group_IT_number       1

loop_
  _space_group_symop_operation_xyz
  'x, y, z'

loop_
  _atom_site_type_symbol
  _atom_site_label
  _atom_site_symmetry_multiplicity
  _atom_site_fract_x
  _atom_site_fract_y
  _atom_site_fract_z
  _atom_site_occupancy
  C   C1        1.0  0.03712  0.52013  0.35066  1.0000
  C   C2        1.0  0.06532  0.57147  0.34009  1.0000
  H   H1        1.0  0.04875  0.59131  0.33100  1.0000
  C   C3        1.0  0.06475  0.49637  0.36061  1.0000
  H   H2        1.0  0.04781  0.46007  0.37146  1.0000
  C   C4        1.0  0.11657  0.59752  0.33869  1.0000
  C   C5        1.0  0.14141  0.57149  0.34643  1.0000
  C   C6        1.0  0.15233  0.47627  0.28482  1.0000
  N   N1        1.0  0.12590  0.46748  0.20775  1.0000
  H   H3        1.0  0.13266  0.45422  0.15414  1.0000
  H   H4        1.0  0.09888  0.47318  0.20382  1.0000
  C   C7        1.0  0.14475  0.64931  0.33312  1.0000
  N   N2        1.0  0.16847  0.64600  0.17743  1.0000
  O   O1        1.0  0.15789  0.66501  0.11374  1.0000
  C   C8        1.0  0.11596  0.52075  0.35791  1.0000
  C   C9        1.0  0.14370  0.49654  0.36376  1.0000
  N   N3        1.0  0.16582  0.52547  0.51939  1.0000
  O   O2        1.0  0.15704  0.49777  0.58573  1.0000
  C   C10       1.0  0.15137  0.67710  0.41164  1.0000
  H   H5        1.0  0.12937  0.66068  0.46608  1.0000
  H   H6        1.0  0.16548  0.73555  0.54222  1.0000
  O   O3        1.0  0.19088  0.59654  0.34870  1.0000
  C   C11       1.0  0.19131  0.46685  0.28408  1.0000
  H   H7        1.0  0.19744  0.45299  0.22650  1.0000
  C   C12       1.0  0.17582  0.67232  0.25867  1.0000
  C   C13       1.0  0.21439  0.72045  0.26746  1.0000
  O   O4        1.0  0.20506  0.64365  0.15451  1.0000
  H   H8        1.0  0.20231  0.58894  0.29278  1.0000
  C   C14       1.0  0.22434  0.47922  0.35667  1.0000
  C   C15       1.0  0.17425  0.50588  0.44002  1.0000
  C   C16       1.0  0.21418  0.49822  0.43464  1.0000
  O   O5        1.0  0.20099  0.56616  0.53899  1.0000
  C   C17       1.0  0.22325  0.74782  0.34795  1.0000
  C   C18       1.0  0.18876  0.72606  0.41928  1.0000
  N   N4        1.0  0.18990  0.75061  0.49529  1.0000
  H   H9        1.0  0.21116  0.78525  0.50012  1.0000
  C   C19       1.0  0.98365  0.49368  0.35066  1.0000
  C   C20       1.0  0.87936  0.44232  0.34628  1.0000
  C   C21       1.0  0.90420  0.41629  0.33862  1.0000
  C   C22       1.0  0.95545  0.44234  0.34008  1.0000
  O   O6        1.0  0.82989  0.41727  0.34837  1.0000
  H   H10       1.0  0.97202  0.42250  0.33090  1.0000
  C   C23       1.0  0.49710  0.52039  0.35064  1.0000
  C   C24       1.0  0.44576  0.49726  0.34013  1.0000
  C   C25       1.0  0.41972  0.52245  0.33869  1.0000
  C   C26       1.0  0.44575  0.57332  0.34635  1.0000
  H   H11       1.0  0.42592  0.46084  0.33100  1.0000
  O   O7        1.0  0.42069  0.59774  0.34854  1.0000
  C   C27       1.0  0.52356  0.49338  0.35063  1.0000
  C   C28       1.0  0.57492  0.44045  0.34633  1.0000
  C   C29       1.0  0.60094  0.49132  0.33864  1.0000
  C   C30       1.0  0.57489  0.51651  0.34003  1.0000
  O   O8        1.0  0.59996  0.41602  0.34849  1.0000
  H   H12       1.0  0.59473  0.55292  0.33090  1.0000
  C   C31       1.0  0.49683  0.98019  0.35065  1.0000
  C   C32       1.0  0.51997  0.95199  0.34000  1.0000
  C   C33       1.0  0.49478  0.90074  0.33859  1.0000
  C   C34       1.0  0.44391  0.87589  0.34635  1.0000
  H   H13       1.0  0.55637  0.96856  0.33084  1.0000
  O   O9        1.0  0.41949  0.82642  0.34852  1.0000
  C   C35       1.0  0.52384  0.03365  0.35068  1.0000
  C   C36       1.0  0.57678  0.13794  0.34637  1.0000
  C   C37       1.0  0.52591  0.11310  0.33873  1.0000
  C   C38       1.0  0.50071  0.06186  0.34018  1.0000
  O   O10       1.0  0.60121  0.18741  0.34855  1.0000
  H   H14       1.0  0.46430  0.04529  0.33107  1.0000
  C   C39       1.0  0.36792  0.49884  0.33306  1.0000
  C   C40       1.0  0.34492  0.50689  0.25860  1.0000
  C   C41       1.0  0.29679  0.49733  0.26740  1.0000
  H   H15       1.0  0.28292  0.50731  0.21480  1.0000
  N   N5        1.0  0.37124  0.52584  0.17735  1.0000
  O   O11       1.0  0.37359  0.56478  0.15439  1.0000
  O   O12       1.0  0.35223  0.49624  0.11369  1.0000
  C   C42       1.0  0.51839  0.87257  0.33281  1.0000
  C   C43       1.0  0.51036  0.84151  0.25840  1.0000
  C   C44       1.0  0.51988  0.80292  0.26720  1.0000
  C   C45       1.0  0.55032  0.72789  0.28393  1.0000
  C   C46       1.0  0.54099  0.67952  0.28471  1.0000
  H   H16       1.0  0.56426  0.74791  0.22641  1.0000
  H   H17       1.0  0.50992  0.77906  0.21459  1.0000
  N   N6        1.0  0.54985  0.66190  0.20769  1.0000
  H   H18       1.0  0.56307  0.68191  0.15405  1.0000
  H   H19       1.0  0.54417  0.62918  0.20377  1.0000
  N   N7        1.0  0.49144  0.84890  0.17713  1.0000
  O   O13       1.0  0.45248  0.81234  0.15417  1.0000
  O   O14       1.0  0.52104  0.85946  0.11348  1.0000
  C   C47       1.0  0.28936  0.82595  0.28411  1.0000
  C   C48       1.0  0.33775  0.86494  0.28485  1.0000
  H   H20       1.0  0.26937  0.81981  0.22653  1.0000
  H   H21       1.0  0.23826  0.73432  0.21486  1.0000
  N   N8        1.0  0.35538  0.89137  0.20777  1.0000
  H   H22       1.0  0.33536  0.88461  0.15416  1.0000
  H   H23       1.0  0.38810  0.91841  0.20383  1.0000
  C   C49       1.0  0.65272  0.51493  0.33290  1.0000
  C   C50       1.0  0.67577  0.50690  0.25848  1.0000
  C   C51       1.0  0.72388  0.51642  0.26726  1.0000
  C   C52       1.0  0.82936  0.54687  0.28396  1.0000
  C   C53       1.0  0.86841  0.53755  0.28471  1.0000
  H   H24       1.0  0.82327  0.56081  0.22645  1.0000
  H   H25       1.0  0.73777  0.50646  0.21463  1.0000
  N   N9        1.0  0.89489  0.54643  0.20770  1.0000
  H   H26       1.0  0.88811  0.55966  0.15406  1.0000
  H   H27       1.0  0.92194  0.54076  0.20379  1.0000
  N   N10       1.0  0.64947  0.48801  0.17720  1.0000
  O   O15       1.0  0.64706  0.44905  0.15421  1.0000
  O   O16       1.0  0.66851  0.51762  0.11357  1.0000
  C   C54       1.0  0.50230  0.14128  0.33315  1.0000
  C   C55       1.0  0.51035  0.17234  0.25868  1.0000
  C   C56       1.0  0.50080  0.21092  0.26745  1.0000
  C   C57       1.0  0.47030  0.28591  0.28408  1.0000
  C   C58       1.0  0.47969  0.33430  0.28479  1.0000
  H   H28       1.0  0.45643  0.26591  0.22651  1.0000
  H   H29       1.0  0.51078  0.23477  0.21483  1.0000
  N   N11       1.0  0.47090  0.35193  0.20771  1.0000
  H   H30       1.0  0.45763  0.33191  0.15410  1.0000
  H   H31       1.0  0.47659  0.38466  0.20377  1.0000
  N   N12       1.0  0.52928  0.16497  0.17742  1.0000
  O   O17       1.0  0.56823  0.20155  0.15444  1.0000
  O   O18       1.0  0.49968  0.15437  0.11377  1.0000
  C   C59       1.0  0.87603  0.36451  0.33283  1.0000
  C   C60       1.0  0.84498  0.34148  0.25840  1.0000
  C   C61       1.0  0.80638  0.29337  0.26720  1.0000
  C   C62       1.0  0.73133  0.18790  0.28393  1.0000
  C   C63       1.0  0.68296  0.14887  0.28469  1.0000
  H   H32       1.0  0.75136  0.19399  0.22641  1.0000
  H   H33       1.0  0.78253  0.27948  0.21457  1.0000
  N   N13       1.0  0.66534  0.12239  0.20767  1.0000
  H   H34       1.0  0.68534  0.12917  0.15404  1.0000
  H   H35       1.0  0.63261  0.09536  0.20377  1.0000
  N   N14       1.0  0.85239  0.36778  0.17712  1.0000
  O   O19       1.0  0.81584  0.37018  0.15411  1.0000
  O   O20       1.0  0.86296  0.34873  0.11350  1.0000
  C   C64       1.0  0.95601  0.51743  0.36063  1.0000
  C   C65       1.0  0.90480  0.49305  0.35793  1.0000
  H   H36       1.0  0.81852  0.42489  0.29239  1.0000
  H   H37       1.0  0.97296  0.55374  0.37145  1.0000
  C   C66       1.0  0.49649  0.59862  0.35788  1.0000
  C   C67       1.0  0.52087  0.57178  0.36059  1.0000
  C   C68       1.0  0.49980  0.44199  0.36061  1.0000
  C   C69       1.0  0.52418  0.41515  0.35788  1.0000
  H   H38       1.0  0.42831  0.61677  0.29261  1.0000
  H   H39       1.0  0.59237  0.39703  0.29253  1.0000
  H   H40       1.0  0.55717  0.59115  0.37137  1.0000
  H   H41       1.0  0.46350  0.42263  0.37148  1.0000
  C   C70       1.0  0.41861  0.90133  0.35790  1.0000
  C   C71       1.0  0.44544  0.95255  0.36065  1.0000
  C   C72       1.0  0.57524  0.06128  0.36061  1.0000
  C   C73       1.0  0.60208  0.11249  0.35794  1.0000
  H   H42       1.0  0.40050  0.81502  0.29256  1.0000
  H   H43       1.0  0.62023  0.19881  0.29262  1.0000
  H   H44       1.0  0.42608  0.96948  0.37153  1.0000
  H   H45       1.0  0.59460  0.04433  0.37139  1.0000
  C   C74       1.0  0.26943  0.47883  0.34791  1.0000
  C   C75       1.0  0.29119  0.46612  0.41926  1.0000
  C   C76       1.0  0.34016  0.47769  0.41162  1.0000
  H   H46       1.0  0.35659  0.47212  0.46606  1.0000
  H   H47       1.0  0.23780  0.50948  0.48776  1.0000
  N   N15       1.0  0.26666  0.44272  0.49528  1.0000
  H   H48       1.0  0.28171  0.43336  0.54221  1.0000
  H   H49       1.0  0.23201  0.42933  0.50010  1.0000
  C   C77       1.0  0.53827  0.79397  0.34778  1.0000
  C   C78       1.0  0.55094  0.82843  0.41916  1.0000
  C   C79       1.0  0.53938  0.86584  0.41148  1.0000
  H   H50       1.0  0.54494  0.88782  0.46595  1.0000
  C   C80       1.0  0.53791  0.74851  0.35650  1.0000
  C   C81       1.0  0.52071  0.65055  0.36357  1.0000
  C   C82       1.0  0.51128  0.67175  0.43980  1.0000
  C   C83       1.0  0.51889  0.71933  0.43442  1.0000
  H   H51       1.0  0.50762  0.73167  0.48756  1.0000
  N   N16       1.0  0.49173  0.64376  0.51921  1.0000
  N   N17       1.0  0.57424  0.82721  0.49526  1.0000
  H   H52       1.0  0.58375  0.85178  0.54196  1.0000
  H   H53       1.0  0.58780  0.80610  0.49991  1.0000
  O   O21       1.0  0.51942  0.66272  0.58554  1.0000
  O   O22       1.0  0.45101  0.63818  0.53880  1.0000
  C   C84       1.0  0.26872  0.79292  0.35670  1.0000
  C   C85       1.0  0.36667  0.87358  0.36377  1.0000
  C   C86       1.0  0.34547  0.84302  0.44003  1.0000
  C   C87       1.0  0.29788  0.80309  0.43465  1.0000
  H   H54       1.0  0.28553  0.77946  0.48777  1.0000
  N   N18       1.0  0.37350  0.85145  0.51938  1.0000
  O   O23       1.0  0.35458  0.86021  0.58575  1.0000
  O   O24       1.0  0.37905  0.81629  0.53894  1.0000
  C   C88       1.0  0.75122  0.53480  0.34783  1.0000
  C   C89       1.0  0.72944  0.54747  0.41922  1.0000
  C   C90       1.0  0.68048  0.53592  0.41155  1.0000
  H   H55       1.0  0.66407  0.54148  0.46603  1.0000
  C   C91       1.0  0.79633  0.53444  0.35653  1.0000
  C   C92       1.0  0.87708  0.51728  0.36357  1.0000
  C   C93       1.0  0.84645  0.50780  0.43981  1.0000
  C   C94       1.0  0.80648  0.51541  0.43444  1.0000
  H   H56       1.0  0.78286  0.50411  0.48757  1.0000
  N   N19       1.0  0.85489  0.48824  0.51921  1.0000
  N   N20       1.0  0.75397  0.57076  0.49533  1.0000
  H   H57       1.0  0.73891  0.58027  0.54203  1.0000
  H   H58       1.0  0.78864  0.58431  0.49998  1.0000
  O   O25       1.0  0.86360  0.51591  0.58557  1.0000
  O   O26       1.0  0.81977  0.44751  0.53876  1.0000
  C   C95       1.0  0.48231  0.21980  0.34795  1.0000
  C   C96       1.0  0.46959  0.18533  0.41931  1.0000
  C   C97       1.0  0.48116  0.14793  0.41167  1.0000
  H   H59       1.0  0.47558  0.12594  0.46614  1.0000
  C   C98       1.0  0.48269  0.26528  0.35668  1.0000
  C   C99       1.0  0.49997  0.36320  0.36370  1.0000
  C   C100      1.0  0.50936  0.34205  0.43999  1.0000
  C   C101      1.0  0.50170  0.29445  0.43462  1.0000
  H   H60       1.0  0.51298  0.28210  0.48774  1.0000
  N   N21       1.0  0.52896  0.37008  0.51935  1.0000
  N   N22       1.0  0.44621  0.18649  0.49533  1.0000
  H   H61       1.0  0.43685  0.16208  0.54228  1.0000
  H   H62       1.0  0.43282  0.20775  0.50015  1.0000
  O   O27       1.0  0.50128  0.35116  0.58571  1.0000
  O   O28       1.0  0.56966  0.37562  0.53891  1.0000
  C   C102      1.0  0.79742  0.26604  0.34779  1.0000
  C   C103      1.0  0.83187  0.28782  0.41919  1.0000
  C   C104      1.0  0.86928  0.33678  0.41151  1.0000
  H   H63       1.0  0.89125  0.35320  0.46599  1.0000
  C   C105      1.0  0.75195  0.22094  0.35650  1.0000
  C   C106      1.0  0.65402  0.14020  0.36357  1.0000
  C   C107      1.0  0.67519  0.17082  0.43981  1.0000
  C   C108      1.0  0.72277  0.21079  0.43442  1.0000
  H   H64       1.0  0.73510  0.23440  0.48755  1.0000
  N   N23       1.0  0.64720  0.16237  0.51922  1.0000
  N   N24       1.0  0.83064  0.26330  0.49530  1.0000
  H   H65       1.0  0.85520  0.27836  0.54200  1.0000
  H   H66       1.0  0.80952  0.22863  0.49995  1.0000
  O   O29       1.0  0.66616  0.15365  0.58555  1.0000
  O   O30       1.0  0.64161  0.19751  0.53882  1.0000
