data_image0
_chemical_formula_structural       N2O2C5HC5HCH2C2HNHC2HO2C2HC2NCNC4HCO2C8HC7HCH4C3H3C8HC7HCH4C4H4C3HNO2N2C3HNO2NC3HNO2NC3HNO2NC5H2C2H2CHNO2NC3HNO2NHC3HNO2NC3HNO2NC3HNO2N
_chemical_formula_sum              "N24 O24 C96 H42"
_cell_length_a       30.978
_cell_length_b       30.9781
_cell_length_c       14.707
_cell_angle_alpha    90.0002
_cell_angle_beta     89.9998
_cell_angle_gamma    120

_space_group_name_H-M_alt    "P 1"
_space_group_IT_number       1

loop_
  _space_group_symop_operation_xyz
  'x, y, z'

loop_
  _atom_site_type_symbol
  _atom_site_label
  _atom_site_symmetry_multiplicity
  _atom_site_fract_x
  _atom_site_fract_y
  _atom_site_fract_z
  _atom_site_occupancy
  N   N1        1.0  0.17397  0.50243  0.35348  1.0000
  N   N2        1.0  0.15818  0.86404  0.33622  1.0000
  O   O1        1.0  0.15642  0.88270  0.26139  1.0000
  O   O2        1.0  0.15155  0.88743  0.39939  1.0000
  C   C1        1.0  0.04222  0.60463  0.35353  1.0000
  C   C2        1.0  0.02327  0.68505  0.35234  1.0000
  C   C3        1.0  0.07390  0.69677  0.35132  1.0000
  C   C4        1.0  0.08253  0.65529  0.35146  1.0000
  C   C5        1.0  0.13090  0.66197  0.34550  1.0000
  H   H1        1.0  0.01590  0.71384  0.35341  1.0000
  C   C6        1.0  0.05163  0.56315  0.35353  1.0000
  C   C7        1.0  0.01995  0.47102  0.35122  1.0000
  C   C8        1.0  0.07058  0.48273  0.35230  1.0000
  C   C9        1.0  0.11191  0.53171  0.35459  1.0000
  C   C10       1.0  0.10167  0.57206  0.35325  1.0000
  H   H2        1.0  0.07794  0.45394  0.35337  1.0000
  C   C11       1.0  0.14022  0.62234  0.34688  1.0000
  H   H3        1.0  0.17661  0.63202  0.33913  1.0000
  H   H4        1.0  0.16117  0.69598  0.33651  1.0000
  C   C12       1.0  0.11018  0.74901  0.35107  1.0000
  C   C13       1.0  0.16097  0.53836  0.35966  1.0000
  H   H5        1.0  0.09698  0.77324  0.34827  1.0000
  N   N3        1.0  0.16068  0.77128  0.35622  1.0000
  H   H6        1.0  0.18986  0.57323  0.36977  1.0000
  C   C14       1.0  0.21953  0.50529  0.35582  1.0000
  C   C15       1.0  0.22140  0.46093  0.34686  1.0000
  H   H7        1.0  0.18866  0.42794  0.33945  1.0000
  O   O3        1.0  0.24812  0.39456  0.26141  1.0000
  O   O4        1.0  0.24340  0.38498  0.39942  1.0000
  C   C16       1.0  0.24951  0.90942  0.34686  1.0000
  C   C17       1.0  0.20332  0.86370  0.34683  1.0000
  H   H8        1.0  0.24925  0.94216  0.33942  1.0000
  C   C18       1.0  0.20256  0.81756  0.35629  1.0000
  C   C19       1.0  0.24895  0.81901  0.36545  1.0000
  N   N4        1.0  0.24961  0.77381  0.37475  1.0000
  C   C20       1.0  0.26712  0.46047  0.34682  1.0000
  N   N5        1.0  0.26679  0.41500  0.33623  1.0000
  C   C21       1.0  0.29573  0.91128  0.35583  1.0000
  C   C22       1.0  0.31327  0.50586  0.35627  1.0000
  C   C23       1.0  0.31181  0.55079  0.36542  1.0000
  C   C24       1.0  0.26563  0.54999  0.36513  1.0000
  H   H9        1.0  0.26637  0.58315  0.37143  1.0000
  C   C25       1.0  0.29433  0.86519  0.36515  1.0000
  O   O5        1.0  0.26885  0.77191  0.44879  1.0000
  O   O6        1.0  0.27281  0.76763  0.31061  1.0000
  C   C26       1.0  0.52619  0.55845  0.35357  1.0000
  C   C27       1.0  0.53510  0.51732  0.35325  1.0000
  C   C28       1.0  0.49476  0.46674  0.35458  1.0000
  C   C29       1.0  0.44577  0.45908  0.35232  1.0000
  C   C30       1.0  0.43405  0.49799  0.35126  1.0000
  C   C31       1.0  0.47553  0.54810  0.35144  1.0000
  C   C32       1.0  0.58538  0.52905  0.34673  1.0000
  C   C33       1.0  0.46885  0.58978  0.34534  1.0000
  H   H10       1.0  0.41698  0.42292  0.35334  1.0000
  C   C34       1.0  0.56766  0.60933  0.35355  1.0000
  C   C35       1.0  0.61833  0.61969  0.35138  1.0000
  C   C36       1.0  0.65980  0.66980  0.35122  1.0000
  C   C37       1.0  0.64808  0.70871  0.35231  1.0000
  C   C38       1.0  0.59910  0.70105  0.35461  1.0000
  C   C39       1.0  0.55875  0.65047  0.35325  1.0000
  C   C40       1.0  0.62500  0.57801  0.34525  1.0000
  H   H11       1.0  0.67687  0.74487  0.35334  1.0000
  C   C41       1.0  0.50847  0.63874  0.34686  1.0000
  H   H12       1.0  0.65900  0.58175  0.33596  1.0000
  H   H13       1.0  0.59504  0.50235  0.33865  1.0000
  H   H14       1.0  0.49881  0.66544  0.33880  1.0000
  H   H15       1.0  0.43485  0.58604  0.33616  1.0000
  C   C42       1.0  0.59244  0.74345  0.35971  1.0000
  C   C43       1.0  0.71203  0.68575  0.35096  1.0000
  C   C44       1.0  0.50142  0.42434  0.35968  1.0000
  H   H16       1.0  0.55757  0.73747  0.36987  1.0000
  H   H17       1.0  0.73628  0.72319  0.34816  1.0000
  H   H18       1.0  0.53629  0.43033  0.36987  1.0000
  C   C45       1.0  0.57237  0.08860  0.35357  1.0000
  C   C46       1.0  0.61350  0.13864  0.35327  1.0000
  C   C47       1.0  0.66409  0.14888  0.35461  1.0000
  C   C48       1.0  0.67174  0.10755  0.35228  1.0000
  C   C49       1.0  0.63283  0.05692  0.35120  1.0000
  C   C50       1.0  0.58273  0.04829  0.35136  1.0000
  C   C51       1.0  0.60177  0.17719  0.34685  1.0000
  C   C52       1.0  0.54104  0.99993  0.34517  1.0000
  H   H19       1.0  0.70790  0.11491  0.35333  1.0000
  C   C53       1.0  0.52149  0.07919  0.35357  1.0000
  C   C54       1.0  0.51113  0.11950  0.35147  1.0000
  C   C55       1.0  0.46103  0.11087  0.35128  1.0000
  C   C56       1.0  0.42212  0.06024  0.35231  1.0000
  C   C57       1.0  0.42977  0.01891  0.35457  1.0000
  C   C58       1.0  0.48036  0.02915  0.35321  1.0000
  C   C59       1.0  0.55282  0.16787  0.34544  1.0000
  H   H20       1.0  0.38596  0.05287  0.35333  1.0000
  C   C60       1.0  0.49208  0.99060  0.34663  1.0000
  H   H21       1.0  0.54908  0.19812  0.33622  1.0000
  H   H22       1.0  0.62848  0.21356  0.33887  1.0000
  H   H23       1.0  0.46537  0.95425  0.33840  1.0000
  H   H24       1.0  0.54479  0.96969  0.33569  1.0000
  C   C61       1.0  0.64877  0.02064  0.35094  1.0000
  C   C62       1.0  0.38738  0.96985  0.35965  1.0000
  C   C63       1.0  0.44508  0.14715  0.35101  1.0000
  C   C64       1.0  0.70649  0.19794  0.35970  1.0000
  H   H25       1.0  0.68621  0.03383  0.34812  1.0000
  H   H26       1.0  0.39337  0.94097  0.36985  1.0000
  H   H27       1.0  0.40764  0.13395  0.34818  1.0000
  H   H28       1.0  0.70050  0.22682  0.36988  1.0000
  C   C65       1.0  0.62550  0.83509  0.35585  1.0000
  C   C66       1.0  0.66986  0.88132  0.34684  1.0000
  C   C67       1.0  0.67032  0.92750  0.34680  1.0000
  H   H29       1.0  0.70285  0.88157  0.33938  1.0000
  N   N6        1.0  0.71580  0.97264  0.33613  1.0000
  O   O7        1.0  0.73621  0.97438  0.26129  1.0000
  O   O8        1.0  0.74584  0.97929  0.39928  1.0000
  N   N7        1.0  0.62836  0.79239  0.35350  1.0000
  N   N8        1.0  0.33844  0.95685  0.35347  1.0000
  C   C68       1.0  0.87431  0.66248  0.35581  1.0000
  C   C69       1.0  0.87245  0.70684  0.34684  1.0000
  C   C70       1.0  0.82672  0.70730  0.34680  1.0000
  H   H30       1.0  0.90518  0.73983  0.33942  1.0000
  N   N9        1.0  0.82706  0.75278  0.33620  1.0000
  O   O9        1.0  0.84573  0.77321  0.26137  1.0000
  O   O10       1.0  0.85045  0.78280  0.39937  1.0000
  N   N10       1.0  0.91988  0.66534  0.35346  1.0000
  C   C71       1.0  0.46835  0.33270  0.35585  1.0000
  C   C72       1.0  0.42399  0.28647  0.34684  1.0000
  C   C73       1.0  0.42352  0.24029  0.34681  1.0000
  H   H31       1.0  0.39099  0.28622  0.33939  1.0000
  N   N11       1.0  0.37805  0.19515  0.33617  1.0000
  O   O11       1.0  0.35763  0.19340  0.26133  1.0000
  O   O12       1.0  0.34801  0.18851  0.39932  1.0000
  N   N12       1.0  0.46549  0.37541  0.35349  1.0000
  C   C74       1.0  0.79813  0.25651  0.35585  1.0000
  C   C75       1.0  0.84436  0.25837  0.34686  1.0000
  C   C76       1.0  0.89054  0.30410  0.34682  1.0000
  H   H32       1.0  0.84461  0.22564  0.33941  1.0000
  N   N13       1.0  0.93568  0.30376  0.33617  1.0000
  O   O13       1.0  0.93743  0.28510  0.26135  1.0000
  O   O14       1.0  0.94232  0.28037  0.39934  1.0000
  N   N14       1.0  0.75542  0.21094  0.35350  1.0000
  C   C77       1.0  0.99218  0.59572  0.35317  1.0000
  C   C78       1.0  0.98194  0.63606  0.35456  1.0000
  C   C79       1.0  0.95364  0.54545  0.34659  1.0000
  C   C80       1.0  0.01132  0.51249  0.35136  1.0000
  C   C81       1.0  0.96295  0.50581  0.34529  1.0000
  H   H33       1.0  0.93270  0.47181  0.33594  1.0000
  H   H34       1.0  0.91726  0.53578  0.33867  1.0000
  C   C82       1.0  0.98367  0.41878  0.35099  1.0000
  C   C83       1.0  0.93288  0.62940  0.35962  1.0000
  H   H35       1.0  0.99686  0.39454  0.34820  1.0000
  H   H36       1.0  0.90399  0.59453  0.36974  1.0000
  C   C84       1.0  0.38182  0.48203  0.35100  1.0000
  H   H37       1.0  0.35758  0.44460  0.34818  1.0000
  N   N15       1.0  0.35701  0.59665  0.37471  1.0000
  O   O15       1.0  0.35891  0.61780  0.44875  1.0000
  O   O16       1.0  0.36319  0.62603  0.31057  1.0000
  N   N16       1.0  0.35955  0.51027  0.35619  1.0000
  C   C85       1.0  0.62495  0.92826  0.35629  1.0000
  C   C86       1.0  0.58001  0.88188  0.36550  1.0000
  C   C87       1.0  0.58081  0.83649  0.36522  1.0000
  H   H38       1.0  0.54765  0.80408  0.37156  1.0000
  N   N17       1.0  0.53415  0.88122  0.37484  1.0000
  O   O17       1.0  0.51304  0.86200  0.44890  1.0000
  O   O18       1.0  0.50476  0.85801  0.31073  1.0000
  N   N18       1.0  0.62053  0.97014  0.35619  1.0000
  H   H39       1.0  0.32675  0.86444  0.37145  1.0000
  C   C88       1.0  0.78058  0.66192  0.35625  1.0000
  C   C89       1.0  0.78203  0.61699  0.36543  1.0000
  C   C90       1.0  0.82821  0.61778  0.36513  1.0000
  H   H40       1.0  0.82747  0.58462  0.37144  1.0000
  N   N19       1.0  0.73683  0.57112  0.37473  1.0000
  O   O19       1.0  0.73493  0.54999  0.44877  1.0000
  O   O20       1.0  0.73065  0.54174  0.31059  1.0000
  N   N20       1.0  0.73430  0.65751  0.35617  1.0000
  C   C91       1.0  0.46890  0.23953  0.35630  1.0000
  C   C92       1.0  0.51383  0.28591  0.36549  1.0000
  C   C93       1.0  0.51304  0.33130  0.36520  1.0000
  H   H41       1.0  0.54620  0.36371  0.37153  1.0000
  N   N21       1.0  0.55970  0.28658  0.37482  1.0000
  O   O21       1.0  0.58082  0.30580  0.44888  1.0000
  O   O22       1.0  0.58909  0.30978  0.31070  1.0000
  N   N22       1.0  0.47331  0.19765  0.35622  1.0000
  C   C94       1.0  0.89130  0.35024  0.35629  1.0000
  C   C95       1.0  0.84491  0.34878  0.36547  1.0000
  C   C96       1.0  0.79953  0.30260  0.36519  1.0000
  H   H42       1.0  0.76711  0.30335  0.37151  1.0000
  N   N23       1.0  0.84425  0.39398  0.37479  1.0000
  O   O23       1.0  0.82502  0.39588  0.44884  1.0000
  O   O24       1.0  0.82104  0.40016  0.31066  1.0000
  N   N24       1.0  0.93317  0.39652  0.35619  1.0000
