data_image0
_chemical_formula_structural       C30H17NHNHNHC30H17NHNHNHC3H2CH2C3H2CH2C3H2CH10C3H2CH2C3H2CH2C3H2CH2
_chemical_formula_sum              "C84 H72 N6"
_cell_length_a       44.9587
_cell_length_b       44.9588
_cell_length_c       15.0058
_cell_angle_alpha    90
_cell_angle_beta     90
_cell_angle_gamma    120

_space_group_name_H-M_alt    "P 1"
_space_group_IT_number       1

loop_
  _space_group_symop_operation_xyz
  'x, y, z'

loop_
  _atom_site_type_symbol
  _atom_site_label
  _atom_site_symmetry_multiplicity
  _atom_site_fract_x
  _atom_site_fract_y
  _atom_site_fract_z
  _atom_site_occupancy
  C   C1        1.0  0.13184  0.56848  0.31364  1.0000
  C   C2        1.0  0.15094  0.60184  0.35005  1.0000
  C   C3        1.0  0.18630  0.61631  0.36687  1.0000
  C   C4        1.0  0.20314  0.59762  0.34753  1.0000
  C   C5        1.0  0.18390  0.56410  0.31224  1.0000
  C   C6        1.0  0.14861  0.54980  0.29486  1.0000
  C   C7        1.0  0.23811  0.61187  0.36065  1.0000
  C   C8        1.0  0.26141  0.63801  0.31076  1.0000
  C   C9        1.0  0.29671  0.65178  0.31820  1.0000
  C   C10       1.0  0.31170  0.63062  0.31745  1.0000
  C   C11       1.0  0.34774  0.64484  0.31804  1.0000
  C   C12       1.0  0.36891  0.68100  0.31736  1.0000
  C   C13       1.0  0.35469  0.70281  0.31804  1.0000
  C   C14       1.0  0.31852  0.68782  0.31748  1.0000
  C   C15       1.0  0.37620  0.73810  0.31059  1.0000
  C   C16       1.0  0.37338  0.76141  0.36052  1.0000
  C   C17       1.0  0.39410  0.79637  0.34744  1.0000
  C   C18       1.0  0.37983  0.81562  0.31210  1.0000
  C   C19       1.0  0.42963  0.81320  0.36680  1.0000
  C   C20       1.0  0.45053  0.84858  0.35005  1.0000
  C   C21       1.0  0.43628  0.86768  0.31361  1.0000
  C   C22       1.0  0.40083  0.85092  0.29481  1.0000
  C   C23       1.0  0.36151  0.62332  0.31059  1.0000
  C   C24       1.0  0.38766  0.62615  0.36046  1.0000
  C   C25       1.0  0.40189  0.60542  0.34738  1.0000
  C   C26       1.0  0.38320  0.56990  0.36676  1.0000
  C   C27       1.0  0.43540  0.61969  0.31202  1.0000
  C   C28       1.0  0.44970  0.59868  0.29472  1.0000
  C   C29       1.0  0.43101  0.56324  0.31354  1.0000
  C   C30       1.0  0.39766  0.54900  0.34999  1.0000
  H   H1        1.0  0.13925  0.61589  0.36308  1.0000
  H   H2        1.0  0.19970  0.64068  0.39226  1.0000
  H   H3        1.0  0.30792  0.70337  0.31422  1.0000
  H   H4        1.0  0.29616  0.60446  0.31421  1.0000
  H   H5        1.0  0.39506  0.69161  0.31406  1.0000
  H   H6        1.0  0.35883  0.55893  0.39219  1.0000
  H   H7        1.0  0.35422  0.80401  0.29694  1.0000
  H   H8        1.0  0.47627  0.86026  0.36304  1.0000
  H   H9        1.0  0.44060  0.79981  0.39220  1.0000
  H   H10       1.0  0.38361  0.52326  0.36303  1.0000
  H   H11       1.0  0.44940  0.64530  0.29686  1.0000
  H   H12       1.0  0.35474  0.75372  0.40560  1.0000
  H   H13       1.0  0.39478  0.74635  0.26500  1.0000
  H   H14       1.0  0.24578  0.60087  0.40561  1.0000
  H   H15       1.0  0.25317  0.64837  0.26524  1.0000
  H   H16       1.0  0.39862  0.64480  0.40551  1.0000
  H   H17       1.0  0.35117  0.60473  0.26503  1.0000
  N   N1        1.0  0.45638  0.90295  0.29257  1.0000
  H   H18       1.0  0.47588  0.90637  0.25052  1.0000
  N   N2        1.0  0.09657  0.55330  0.29258  1.0000
  H   H19       1.0  0.09315  0.56939  0.25051  1.0000
  N   N3        1.0  0.44618  0.54314  0.29253  1.0000
  H   H20       1.0  0.43010  0.52363  0.25049  1.0000
  C   C31       1.0  0.86759  0.43113  0.35212  1.0000
  C   C32       1.0  0.84848  0.39778  0.31564  1.0000
  C   C33       1.0  0.81312  0.38332  0.29886  1.0000
  C   C34       1.0  0.79629  0.40202  0.31822  1.0000
  C   C35       1.0  0.81554  0.43554  0.35356  1.0000
  C   C36       1.0  0.85083  0.44982  0.37094  1.0000
  C   C37       1.0  0.76133  0.38778  0.30513  1.0000
  C   C38       1.0  0.73800  0.36162  0.35492  1.0000
  C   C39       1.0  0.70271  0.34784  0.34740  1.0000
  C   C40       1.0  0.68771  0.36900  0.34813  1.0000
  C   C41       1.0  0.65167  0.35478  0.34746  1.0000
  C   C42       1.0  0.63052  0.31862  0.34812  1.0000
  C   C43       1.0  0.64474  0.29680  0.34744  1.0000
  C   C44       1.0  0.68090  0.31181  0.34808  1.0000
  C   C45       1.0  0.62323  0.26151  0.35496  1.0000
  C   C46       1.0  0.62606  0.23819  0.30514  1.0000
  C   C47       1.0  0.60534  0.20323  0.31825  1.0000
  C   C48       1.0  0.61961  0.18398  0.35357  1.0000
  C   C49       1.0  0.56981  0.18640  0.29890  1.0000
  C   C50       1.0  0.54891  0.15103  0.31567  1.0000
  C   C51       1.0  0.56315  0.13193  0.35214  1.0000
  C   C52       1.0  0.59860  0.14869  0.37094  1.0000
  C   C53       1.0  0.63790  0.37629  0.35500  1.0000
  C   C54       1.0  0.61173  0.37346  0.30520  1.0000
  C   C55       1.0  0.59750  0.39419  0.31833  1.0000
  C   C56       1.0  0.61620  0.42971  0.29896  1.0000
  C   C57       1.0  0.56400  0.37992  0.35372  1.0000
  C   C58       1.0  0.54970  0.40092  0.37106  1.0000
  C   C59       1.0  0.56839  0.43637  0.35224  1.0000
  C   C60       1.0  0.60173  0.45061  0.31577  1.0000
  H   H21       1.0  0.86016  0.38371  0.30266  1.0000
  H   H22       1.0  0.79971  0.35895  0.27347  1.0000
  H   H23       1.0  0.69151  0.29626  0.35138  1.0000
  H   H24       1.0  0.70325  0.39516  0.35142  1.0000
  H   H25       1.0  0.60436  0.30801  0.35144  1.0000
  H   H26       1.0  0.64056  0.44067  0.27351  1.0000
  H   H27       1.0  0.64521  0.19560  0.36880  1.0000
  H   H28       1.0  0.52317  0.13935  0.30269  1.0000
  H   H29       1.0  0.55885  0.19980  0.27349  1.0000
  H   H30       1.0  0.61579  0.47635  0.30273  1.0000
  H   H31       1.0  0.54999  0.35431  0.36888  1.0000
  H   H32       1.0  0.64471  0.24586  0.26007  1.0000
  H   H33       1.0  0.60464  0.25328  0.40052  1.0000
  H   H34       1.0  0.75366  0.39876  0.26009  1.0000
  H   H35       1.0  0.74624  0.35126  0.40046  1.0000
  H   H36       1.0  0.60076  0.35481  0.26012  1.0000
  H   H37       1.0  0.64825  0.39488  0.40056  1.0000
  N   N4        1.0  0.54305  0.09666  0.37321  1.0000
  H   H38       1.0  0.52355  0.09325  0.41526  1.0000
  N   N5        1.0  0.90286  0.44629  0.37319  1.0000
  H   H39       1.0  0.90627  0.43019  0.41524  1.0000
  N   N6        1.0  0.55322  0.45647  0.37328  1.0000
  H   H40       1.0  0.56931  0.47598  0.41532  1.0000
  C   C61       1.0  0.51259  0.50087  0.24726  1.0000
  C   C62       1.0  0.49137  0.51505  0.26299  1.0000
  C   C63       1.0  0.52141  0.48550  0.31683  1.0000
  H   H41       1.0  0.48602  0.52617  0.21072  1.0000
  H   H42       1.0  0.52172  0.50197  0.18413  1.0000
  C   C64       1.0  0.54373  0.47064  0.29580  1.0000
  H   H43       1.0  0.56724  0.49053  0.26407  1.0000
  H   H44       1.0  0.52991  0.45008  0.24718  1.0000
  C   C65       1.0  0.49863  0.01162  0.24725  1.0000
  C   C66       1.0  0.48447  0.97623  0.26300  1.0000
  C   C67       1.0  0.51401  0.03582  0.31680  1.0000
  H   H45       1.0  0.47334  0.95975  0.21074  1.0000
  H   H46       1.0  0.49754  0.01965  0.18412  1.0000
  C   C68       1.0  0.52888  0.07300  0.29575  1.0000
  H   H47       1.0  0.50898  0.07661  0.26403  1.0000
  H   H48       1.0  0.54943  0.07973  0.24712  1.0000
  C   C69       1.0  0.98790  0.48691  0.24724  1.0000
  C   C70       1.0  0.02329  0.50812  0.26299  1.0000
  C   C71       1.0  0.96370  0.47809  0.31679  1.0000
  H   H49       1.0  0.03977  0.51348  0.21073  1.0000
  H   H50       1.0  0.97987  0.47777  0.18411  1.0000
  C   C72       1.0  0.92652  0.45577  0.29573  1.0000
  H   H51       1.0  0.92291  0.43226  0.26401  1.0000
  H   H52       1.0  0.91979  0.46959  0.24710  1.0000
  H   H53       1.0  0.13518  0.52570  0.26799  1.0000
  H   H54       1.0  0.19553  0.55011  0.29703  1.0000
  H   H55       1.0  0.39017  0.86435  0.26792  1.0000
  H   H56       1.0  0.47380  0.60934  0.26784  1.0000
  H   H57       1.0  0.86426  0.47391  0.39785  1.0000
  H   H58       1.0  0.80392  0.44952  0.36880  1.0000
  H   H59       1.0  0.60926  0.13526  0.39786  1.0000
  H   H60       1.0  0.52561  0.39026  0.39795  1.0000
  C   C73       1.0  0.47799  0.51411  0.34898  1.0000
  C   C74       1.0  0.48682  0.49874  0.41855  1.0000
  C   C75       1.0  0.50803  0.48457  0.40282  1.0000
  H   H61       1.0  0.47768  0.49765  0.48168  1.0000
  H   H62       1.0  0.51339  0.47345  0.45510  1.0000
  C   C76       1.0  0.45567  0.52898  0.37001  1.0000
  H   H63       1.0  0.46949  0.54954  0.41862  1.0000
  H   H64       1.0  0.43217  0.50909  0.40175  1.0000
  C   C77       1.0  0.48541  0.96379  0.34899  1.0000
  C   C78       1.0  0.50078  0.98799  0.41855  1.0000
  C   C79       1.0  0.51495  0.02338  0.40280  1.0000
  H   H65       1.0  0.50188  0.97996  0.48168  1.0000
  H   H66       1.0  0.52608  0.03986  0.45506  1.0000
  C   C80       1.0  0.47054  0.92661  0.37004  1.0000
  H   H67       1.0  0.44999  0.91987  0.41866  1.0000
  H   H68       1.0  0.49044  0.92300  0.40177  1.0000
  C   C81       1.0  0.03573  0.52151  0.34898  1.0000
  C   C82       1.0  0.01152  0.51268  0.41854  1.0000
  C   C83       1.0  0.97614  0.49147  0.40278  1.0000
  H   H69       1.0  0.01956  0.52182  0.48167  1.0000
  H   H70       1.0  0.95965  0.48612  0.45504  1.0000
  C   C84       1.0  0.07291  0.54382  0.37004  1.0000
  H   H71       1.0  0.07964  0.53000  0.41868  1.0000
  H   H72       1.0  0.07652  0.56733  0.40176  1.0000
