data_image0
_chemical_formula_structural       C30H17NHNHNHC30H17NHNHNHCNC3HNHCH2CNC3HNHCH2CNC3HNHCH10C4HC4H3CH2C4HC4H3CH2C4HC4H3CH2
_chemical_formula_sum              "C102 H78 N12"
_cell_length_a       52.1201
_cell_length_b       52.1202
_cell_length_c       15.0076
_cell_angle_alpha    90
_cell_angle_beta     90
_cell_angle_gamma    120

_space_group_name_H-M_alt    "P 1"
_space_group_IT_number       1

loop_
  _space_group_symop_operation_xyz
  'x, y, z'

loop_
  _atom_site_type_symbol
  _atom_site_label
  _atom_site_symmetry_multiplicity
  _atom_site_fract_x
  _atom_site_fract_y
  _atom_site_fract_z
  _atom_site_occupancy
  C   C1        1.0  0.15947  0.58249  0.34441  1.0000
  C   C2        1.0  0.17633  0.61118  0.30771  1.0000
  C   C3        1.0  0.20691  0.62344  0.29279  1.0000
  C   C4        1.0  0.22110  0.60715  0.31418  1.0000
  C   C5        1.0  0.20412  0.57828  0.34950  1.0000
  C   C6        1.0  0.17361  0.56620  0.36518  1.0000
  C   C7        1.0  0.25132  0.61930  0.30305  1.0000
  C   C8        1.0  0.27113  0.64162  0.35424  1.0000
  C   C9        1.0  0.30161  0.65362  0.34787  1.0000
  C   C10       1.0  0.31466  0.63546  0.34863  1.0000
  C   C11       1.0  0.34575  0.64787  0.34801  1.0000
  C   C12       1.0  0.36391  0.67907  0.34870  1.0000
  C   C13       1.0  0.35151  0.69777  0.34800  1.0000
  C   C14       1.0  0.32031  0.68472  0.34860  1.0000
  C   C15       1.0  0.36998  0.72824  0.35438  1.0000
  C   C16       1.0  0.36748  0.74805  0.30315  1.0000
  C   C17       1.0  0.38555  0.77827  0.31424  1.0000
  C   C18       1.0  0.37368  0.79526  0.34962  1.0000
  C   C19       1.0  0.41603  0.79246  0.29285  1.0000
  C   C20       1.0  0.43435  0.82304  0.30769  1.0000
  C   C21       1.0  0.42254  0.83991  0.34441  1.0000
  C   C22       1.0  0.39211  0.82578  0.36521  1.0000
  C   C23       1.0  0.35776  0.62939  0.35438  1.0000
  C   C24       1.0  0.38007  0.63190  0.30319  1.0000
  C   C25       1.0  0.39222  0.61383  0.31427  1.0000
  C   C26       1.0  0.37593  0.58335  0.29288  1.0000
  C   C27       1.0  0.42108  0.62570  0.34966  1.0000
  C   C28       1.0  0.43316  0.60726  0.36526  1.0000
  C   C29       1.0  0.41687  0.57684  0.34447  1.0000
  C   C30       1.0  0.38819  0.56503  0.30775  1.0000
  H   H1        1.0  0.16649  0.62345  0.29341  1.0000
  H   H2        1.0  0.21876  0.64444  0.26741  1.0000
  H   H3        1.0  0.31107  0.69806  0.35147  1.0000
  H   H4        1.0  0.30132  0.61289  0.35148  1.0000
  H   H5        1.0  0.38649  0.68831  0.35160  1.0000
  H   H6        1.0  0.35493  0.57420  0.26748  1.0000
  H   H7        1.0  0.35171  0.78547  0.36620  1.0000
  H   H8        1.0  0.45646  0.83287  0.29345  1.0000
  H   H9        1.0  0.42518  0.78061  0.26747  1.0000
  H   H10       1.0  0.37591  0.54292  0.29347  1.0000
  H   H11       1.0  0.43326  0.64767  0.36624  1.0000
  H   H12       1.0  0.35139  0.74119  0.25805  1.0000
  H   H13       1.0  0.38610  0.73560  0.39969  1.0000
  H   H14       1.0  0.25818  0.61004  0.25805  1.0000
  H   H15       1.0  0.26378  0.65040  0.39949  1.0000
  H   H16       1.0  0.38931  0.64800  0.25810  1.0000
  H   H17       1.0  0.34898  0.61326  0.39966  1.0000
  N   N1        1.0  0.44033  0.87037  0.36431  1.0000
  H   H18       1.0  0.45770  0.87325  0.40372  1.0000
  N   N2        1.0  0.12901  0.56982  0.36431  1.0000
  H   H19       1.0  0.12612  0.58430  0.40374  1.0000
  N   N3        1.0  0.42954  0.55905  0.36434  1.0000
  H   H20       1.0  0.41505  0.54168  0.40375  1.0000
  C   C31       1.0  0.84008  0.41786  0.31891  1.0000
  C   C32       1.0  0.82296  0.38881  0.35282  1.0000
  C   C33       1.0  0.79226  0.37634  0.36556  1.0000
  C   C34       1.0  0.77817  0.39277  0.34470  1.0000
  C   C35       1.0  0.79538  0.42194  0.31173  1.0000
  C   C36       1.0  0.82603  0.43425  0.29825  1.0000
  C   C37       1.0  0.74792  0.38063  0.35513  1.0000
  C   C38       1.0  0.72816  0.35808  0.30453  1.0000
  C   C39       1.0  0.69766  0.34599  0.31077  1.0000
  C   C40       1.0  0.68449  0.36404  0.31006  1.0000
  C   C41       1.0  0.65338  0.35154  0.31074  1.0000
  C   C42       1.0  0.63533  0.32033  0.31006  1.0000
  C   C43       1.0  0.64783  0.30172  0.31074  1.0000
  C   C44       1.0  0.67905  0.31488  0.31008  1.0000
  C   C45       1.0  0.62943  0.27121  0.30449  1.0000
  C   C46       1.0  0.63220  0.25145  0.35511  1.0000
  C   C47       1.0  0.61409  0.22120  0.34468  1.0000
  C   C48       1.0  0.62606  0.20399  0.31171  1.0000
  C   C49       1.0  0.58358  0.20712  0.36554  1.0000
  C   C50       1.0  0.56535  0.17641  0.35281  1.0000
  C   C51       1.0  0.57728  0.15929  0.31889  1.0000
  C   C52       1.0  0.60771  0.17334  0.29824  1.0000
  C   C53       1.0  0.64129  0.36995  0.30449  1.0000
  C   C54       1.0  0.61874  0.36717  0.35510  1.0000
  C   C55       1.0  0.60660  0.38528  0.34466  1.0000
  C   C56       1.0  0.62303  0.41579  0.36553  1.0000
  C   C57       1.0  0.57744  0.37332  0.31162  1.0000
  C   C58       1.0  0.56513  0.39166  0.29819  1.0000
  C   C59       1.0  0.58151  0.42209  0.31886  1.0000
  C   C60       1.0  0.61056  0.43403  0.35278  1.0000
  H   H21       1.0  0.83276  0.37652  0.36731  1.0000
  H   H22       1.0  0.78028  0.35517  0.38957  1.0000
  H   H23       1.0  0.68836  0.30161  0.30723  1.0000
  H   H24       1.0  0.69776  0.38663  0.30723  1.0000
  H   H25       1.0  0.61274  0.31101  0.30719  1.0000
  H   H26       1.0  0.64419  0.42499  0.38959  1.0000
  H   H27       1.0  0.64807  0.21368  0.29575  1.0000
  H   H28       1.0  0.54326  0.16662  0.36730  1.0000
  H   H29       1.0  0.57438  0.21909  0.38956  1.0000
  H   H30       1.0  0.62285  0.45611  0.36732  1.0000
  H   H31       1.0  0.56511  0.35131  0.29572  1.0000
  H   H32       1.0  0.64847  0.25839  0.39962  1.0000
  H   H33       1.0  0.61310  0.26380  0.25987  1.0000
  H   H34       1.0  0.74099  0.38997  0.39962  1.0000
  H   H35       1.0  0.73557  0.34917  0.25992  1.0000
  H   H36       1.0  0.60940  0.35090  0.39960  1.0000
  H   H37       1.0  0.65020  0.38628  0.25987  1.0000
  N   N4        1.0  0.55970  0.12849  0.30338  1.0000
  H   H38       1.0  0.54208  0.12474  0.26375  1.0000
  N   N5        1.0  0.87088  0.43108  0.30339  1.0000
  H   H39       1.0  0.87463  0.41721  0.26376  1.0000
  N   N6        1.0  0.56829  0.43968  0.30337  1.0000
  H   H40       1.0  0.58215  0.45730  0.26374  1.0000
  C   C61       1.0  0.53220  0.46794  0.28576  1.0000
  N   N7        1.0  0.51570  0.48129  0.27743  1.0000
  C   C62       1.0  0.49046  0.50588  0.33490  1.0000
  C   C63       1.0  0.46540  0.52194  0.23597  1.0000
  C   C64       1.0  0.45632  0.53348  0.30672  1.0000
  H   H41       1.0  0.53712  0.46039  0.22927  1.0000
  N   N8        1.0  0.48179  0.50883  0.25197  1.0000
  H   H42       1.0  0.45981  0.52331  0.17157  1.0000
  C   C65       1.0  0.43847  0.54787  0.28597  1.0000
  H   H43       1.0  0.41859  0.53195  0.24973  1.0000
  H   H44       1.0  0.45178  0.56651  0.24145  1.0000
  C   C66       1.0  0.53143  0.06414  0.28576  1.0000
  N   N9        1.0  0.51808  0.03429  0.27743  1.0000
  C   C67       1.0  0.49349  0.98445  0.33489  1.0000
  C   C68       1.0  0.47744  0.94335  0.23596  1.0000
  C   C69       1.0  0.46590  0.92273  0.30670  1.0000
  H   H45       1.0  0.53898  0.07662  0.22927  1.0000
  N   N10       1.0  0.49055  0.97284  0.25195  1.0000
  H   H46       1.0  0.47607  0.93638  0.17155  1.0000
  C   C70       1.0  0.45151  0.89049  0.28594  1.0000
  H   H47       1.0  0.46743  0.88653  0.24970  1.0000
  H   H48       1.0  0.43286  0.88515  0.24142  1.0000
  C   C71       1.0  0.93524  0.46717  0.28578  1.0000
  N   N11       1.0  0.96508  0.48366  0.27744  1.0000
  C   C72       1.0  0.01492  0.50891  0.33491  1.0000
  C   C73       1.0  0.05602  0.53396  0.23597  1.0000
  C   C74       1.0  0.07665  0.54304  0.30671  1.0000
  H   H49       1.0  0.92276  0.46224  0.22928  1.0000
  N   N12       1.0  0.02653  0.51757  0.25197  1.0000
  H   H50       1.0  0.06299  0.53956  0.17157  1.0000
  C   C75       1.0  0.10889  0.56089  0.28595  1.0000
  H   H51       1.0  0.11285  0.58076  0.24971  1.0000
  H   H52       1.0  0.11421  0.54758  0.24142  1.0000
  H   H53       1.0  0.16174  0.54548  0.39232  1.0000
  H   H54       1.0  0.21391  0.56612  0.36616  1.0000
  H   H55       1.0  0.38326  0.83765  0.39234  1.0000
  H   H56       1.0  0.45388  0.61611  0.39238  1.0000
  H   H57       1.0  0.83811  0.45528  0.27347  1.0000
  H   H58       1.0  0.78570  0.43427  0.29577  1.0000
  H   H59       1.0  0.61667  0.16126  0.27346  1.0000
  H   H60       1.0  0.54409  0.38270  0.27342  1.0000
  C   C76       1.0  0.54210  0.46466  0.37050  1.0000
  C   C77       1.0  0.50757  0.49207  0.34771  1.0000
  C   C78       1.0  0.51653  0.48928  0.43486  1.0000
  C   C79       1.0  0.53379  0.47551  0.44498  1.0000
  H   H61       1.0  0.54046  0.47336  0.50740  1.0000
  C   C80       1.0  0.46518  0.53085  0.39388  1.0000
  C   C81       1.0  0.48216  0.51701  0.40919  1.0000
  C   C82       1.0  0.49104  0.51404  0.49566  1.0000
  C   C83       1.0  0.50807  0.50026  0.50841  1.0000
  H   H62       1.0  0.48520  0.52188  0.54996  1.0000
  H   H63       1.0  0.51429  0.49839  0.57167  1.0000
  H   H64       1.0  0.45937  0.53912  0.44705  1.0000
  C   C84       1.0  0.56033  0.45031  0.38507  1.0000
  H   H65       1.0  0.54770  0.43137  0.42929  1.0000
  H   H66       1.0  0.58065  0.46609  0.41978  1.0000
  C   C85       1.0  0.53471  0.07732  0.37051  1.0000
  C   C86       1.0  0.50730  0.01538  0.34771  1.0000
  C   C87       1.0  0.51009  0.02712  0.43486  1.0000
  C   C88       1.0  0.52386  0.05816  0.44499  1.0000
  H   H67       1.0  0.52600  0.06697  0.50741  1.0000
  C   C89       1.0  0.46853  0.93421  0.39386  1.0000
  C   C90       1.0  0.48236  0.96503  0.40917  1.0000
  C   C91       1.0  0.48534  0.97688  0.49565  1.0000
  C   C92       1.0  0.49911  0.00768  0.50840  1.0000
  H   H68       1.0  0.47749  0.96320  0.54994  1.0000
  H   H69       1.0  0.50098  0.01577  0.57167  1.0000
  H   H70       1.0  0.46025  0.92012  0.44703  1.0000
  C   C93       1.0  0.54906  0.10990  0.38508  1.0000
  H   H71       1.0  0.56800  0.11621  0.42931  1.0000
  H   H72       1.0  0.53327  0.11443  0.41978  1.0000
  C   C94       1.0  0.92205  0.45726  0.37051  1.0000
  C   C95       1.0  0.98399  0.49179  0.34772  1.0000
  C   C96       1.0  0.97225  0.48284  0.43487  1.0000
  C   C97       1.0  0.94121  0.46557  0.44500  1.0000
  H   H73       1.0  0.93240  0.45890  0.50742  1.0000
  C   C98       1.0  0.06517  0.53419  0.39388  1.0000
  C   C99       1.0  0.03435  0.51721  0.40919  1.0000
  C   C100      1.0  0.02250  0.50833  0.49566  1.0000
  C   C101      1.0  0.99169  0.49130  0.50842  1.0000
  H   H74       1.0  0.03617  0.51416  0.54995  1.0000
  H   H75       1.0  0.98360  0.48508  0.57168  1.0000
  H   H76       1.0  0.07925  0.53999  0.44704  1.0000
  C   C102      1.0  0.88947  0.43903  0.38509  1.0000
  H   H77       1.0  0.88316  0.45166  0.42932  1.0000
  H   H78       1.0  0.88494  0.41872  0.41979  1.0000
