data_image0
_chemical_formula_structural       CHC2HC3H2C2HC2HC3HC3H2C3H2C2HNH2CNHC2HC2HC2HC2HC2HC2H2C2H2C2H2CHC2H2C2H2C2H2C2H2C2H2C2H2C4H2C4H2C4H2C4H2C4H2C2HC8H3NH2C3H2C8H3NH2C8H3NH2C8H3NH2
_chemical_formula_sum              "C108 H72 N6"
_cell_length_a       31.8087
_cell_length_b       31.8086
_cell_length_c       14.7404
_cell_angle_alpha    90
_cell_angle_beta     90
_cell_angle_gamma    120

_space_group_name_H-M_alt    "P 1"
_space_group_IT_number       1

loop_
  _space_group_symop_operation_xyz
  'x, y, z'

loop_
  _atom_site_type_symbol
  _atom_site_label
  _atom_site_symmetry_multiplicity
  _atom_site_fract_x
  _atom_site_fract_y
  _atom_site_fract_z
  _atom_site_occupancy
  C   C1        1.0  0.06897  0.57291  0.34307  1.0000
  H   H1        1.0  0.05299  0.59324  0.33051  1.0000
  C   C2        1.0  0.03990  0.52147  0.35556  1.0000
  C   C3        1.0  0.06628  0.49632  0.36796  1.0000
  H   H2        1.0  0.04846  0.45987  0.38001  1.0000
  C   C4        1.0  0.12044  0.59804  0.34279  1.0000
  C   C5        1.0  0.19507  0.46999  0.29345  1.0000
  C   C6        1.0  0.15456  0.47666  0.29769  1.0000
  H   H3        1.0  0.20192  0.45835  0.23337  1.0000
  H   H4        1.0  0.13450  0.47136  0.24007  1.0000
  C   C7        1.0  0.18979  0.66915  0.27193  1.0000
  C   C8        1.0  0.22835  0.71719  0.28004  1.0000
  H   H5        1.0  0.19272  0.64712  0.22473  1.0000
  C   C9        1.0  0.14373  0.57073  0.35581  1.0000
  C   C10       1.0  0.11760  0.52009  0.36792  1.0000
  H   H6        1.0  0.18097  0.58826  0.35689  1.0000
  C   C11       1.0  0.14530  0.49615  0.37608  1.0000
  C   C12       1.0  0.17686  0.50701  0.45094  1.0000
  C   C13       1.0  0.21887  0.50218  0.44709  1.0000
  H   H7        1.0  0.17210  0.52404  0.50577  1.0000
  C   C14       1.0  0.18770  0.72997  0.40697  1.0000
  C   C15       1.0  0.14933  0.68146  0.39981  1.0000
  C   C16       1.0  0.15049  0.64966  0.33397  1.0000
  H   H8        1.0  0.18715  0.75089  0.45922  1.0000
  H   H9        1.0  0.12275  0.66835  0.44835  1.0000
  C   C17       1.0  0.22855  0.48357  0.36627  1.0000
  C   C18       1.0  0.22903  0.74797  0.35004  1.0000
  C   C19       1.0  0.29245  0.82699  0.29342  1.0000
  H   H10       1.0  0.27393  0.82012  0.23337  1.0000
  H   H11       1.0  0.25783  0.72818  0.23848  1.0000
  C   C20       1.0  0.27403  0.48545  0.35011  1.0000
  C   C21       1.0  0.29205  0.46214  0.40707  1.0000
  H   H12       1.0  0.27105  0.44054  0.45911  1.0000
  N   N1        1.0  0.24999  0.51955  0.51887  1.0000
  H   H13       1.0  0.24294  0.53321  0.57195  1.0000
  H   H14       1.0  0.28123  0.52122  0.51845  1.0000
  C   C22       1.0  0.27259  0.79347  0.36619  1.0000
  N   N2        1.0  0.28724  0.77199  0.51866  1.0000
  H   H15       1.0  0.25769  0.74074  0.51820  1.0000
  C   C23       1.0  0.90599  0.41957  0.34282  1.0000
  C   C24       1.0  0.95746  0.44470  0.34307  1.0000
  H   H16       1.0  0.97343  0.42438  0.33044  1.0000
  C   C25       1.0  0.60243  0.49076  0.34277  1.0000
  C   C26       1.0  0.57731  0.51710  0.34306  1.0000
  H   H17       1.0  0.59764  0.55341  0.33047  1.0000
  C   C27       1.0  0.44909  0.50045  0.34315  1.0000
  C   C28       1.0  0.42397  0.52679  0.34288  1.0000
  H   H18       1.0  0.42875  0.46414  0.33059  1.0000
  C   C29       1.0  0.53122  0.11606  0.34283  1.0000
  C   C30       1.0  0.50489  0.06459  0.34305  1.0000
  H   H19       1.0  0.46857  0.04862  0.33059  1.0000
  C   C31       1.0  0.52158  0.95307  0.34303  1.0000
  C   C32       1.0  0.49525  0.90160  0.34277  1.0000
  H   H20       1.0  0.55789  0.96905  0.33056  1.0000
  C   C33       1.0  0.35290  0.52512  0.27213  1.0000
  C   C34       1.0  0.30485  0.51562  0.28018  1.0000
  H   H21       1.0  0.37492  0.55008  0.22490  1.0000
  H   H22       1.0  0.29386  0.53414  0.23871  1.0000
  C   C35       1.0  0.55213  0.72954  0.29342  1.0000
  C   C36       1.0  0.54548  0.68236  0.29772  1.0000
  H   H23       1.0  0.56382  0.74803  0.23334  1.0000
  H   H24       1.0  0.55085  0.66763  0.24014  1.0000
  C   C37       1.0  0.49703  0.83227  0.27183  1.0000
  C   C38       1.0  0.50647  0.79369  0.28000  1.0000
  H   H25       1.0  0.47214  0.82937  0.22449  1.0000
  H   H26       1.0  0.48810  0.76426  0.23827  1.0000
  C   C39       1.0  0.33961  0.86755  0.29763  1.0000
  H   H27       1.0  0.35433  0.88752  0.23992  1.0000
  C   C40       1.0  0.83133  0.54755  0.29351  1.0000
  C   C41       1.0  0.87189  0.54096  0.29785  1.0000
  H   H28       1.0  0.82447  0.55913  0.23337  1.0000
  H   H29       1.0  0.89184  0.54613  0.24014  1.0000
  C   C42       1.0  0.67352  0.49245  0.27200  1.0000
  C   C43       1.0  0.72155  0.50190  0.28027  1.0000
  H   H30       1.0  0.65147  0.46732  0.22505  1.0000
  H   H31       1.0  0.73253  0.48335  0.23886  1.0000
  C   C44       1.0  0.47431  0.28810  0.29353  1.0000
  C   C45       1.0  0.48098  0.33529  0.29778  1.0000
  H   H32       1.0  0.46265  0.26961  0.23344  1.0000
  H   H33       1.0  0.47567  0.35005  0.24018  1.0000
  C   C46       1.0  0.52951  0.18547  0.27206  1.0000
  C   C47       1.0  0.51997  0.22400  0.28014  1.0000
  H   H34       1.0  0.55447  0.18844  0.22481  1.0000
  H   H35       1.0  0.53849  0.25352  0.23868  1.0000
  C   C48       1.0  0.73393  0.19063  0.29327  1.0000
  C   C49       1.0  0.68676  0.15010  0.29752  1.0000
  H   H36       1.0  0.75243  0.19746  0.23320  1.0000
  H   H37       1.0  0.67202  0.13001  0.23993  1.0000
  C   C50       1.0  0.83665  0.34848  0.27181  1.0000
  C   C51       1.0  0.79807  0.30046  0.27995  1.0000
  H   H38       1.0  0.83374  0.37049  0.22451  1.0000
  H   H39       1.0  0.76864  0.28941  0.23824  1.0000
  C   C52       1.0  0.98654  0.49613  0.35558  1.0000
  C   C53       1.0  0.96016  0.52128  0.36806  1.0000
  C   C54       1.0  0.90884  0.49752  0.36804  1.0000
  C   C55       1.0  0.88271  0.44688  0.35587  1.0000
  H   H40       1.0  0.97798  0.55773  0.38009  1.0000
  H   H41       1.0  0.84546  0.42936  0.35695  1.0000
  C   C56       1.0  0.52587  0.49476  0.35555  1.0000
  C   C57       1.0  0.50070  0.44323  0.36796  1.0000
  C   C58       1.0  0.52446  0.41567  0.36800  1.0000
  C   C59       1.0  0.57510  0.44016  0.35587  1.0000
  H   H42       1.0  0.46426  0.42461  0.38005  1.0000
  H   H43       1.0  0.59261  0.42043  0.35700  1.0000
  C   C60       1.0  0.50053  0.52279  0.35558  1.0000
  C   C61       1.0  0.45131  0.57739  0.35593  1.0000
  C   C62       1.0  0.50195  0.60188  0.36806  1.0000
  C   C63       1.0  0.52571  0.57432  0.36798  1.0000
  H   H44       1.0  0.43380  0.59712  0.35703  1.0000
  H   H45       1.0  0.56217  0.59295  0.37990  1.0000
  C   C64       1.0  0.52724  0.03551  0.35555  1.0000
  C   C65       1.0  0.57878  0.06188  0.36790  1.0000
  C   C66       1.0  0.60634  0.11320  0.36785  1.0000
  C   C67       1.0  0.58183  0.13933  0.35577  1.0000
  H   H46       1.0  0.59741  0.04407  0.37994  1.0000
  H   H47       1.0  0.60155  0.17658  0.35682  1.0000
  C   C68       1.0  0.49922  0.98215  0.35555  1.0000
  C   C69       1.0  0.44464  0.87832  0.35572  1.0000
  C   C70       1.0  0.42013  0.90444  0.36787  1.0000
  C   C71       1.0  0.44768  0.95576  0.36794  1.0000
  H   H48       1.0  0.42492  0.84107  0.35671  1.0000
  H   H49       1.0  0.42904  0.97358  0.37990  1.0000
  C   C72       1.0  0.34057  0.47232  0.39998  1.0000
  C   C73       1.0  0.37235  0.50527  0.33414  1.0000
  H   H50       1.0  0.35362  0.45865  0.44826  1.0000
  C   C74       1.0  0.52591  0.65351  0.37598  1.0000
  C   C75       1.0  0.51496  0.67426  0.45069  1.0000
  C   C76       1.0  0.51985  0.72113  0.44693  1.0000
  C   C77       1.0  0.53847  0.74941  0.36611  1.0000
  C   C78       1.0  0.53659  0.79301  0.34997  1.0000
  C   C79       1.0  0.55986  0.83431  0.40700  1.0000
  C   C80       1.0  0.54967  0.87265  0.39988  1.0000
  C   C81       1.0  0.51679  0.87154  0.33391  1.0000
  H   H51       1.0  0.58131  0.83485  0.45926  1.0000
  H   H52       1.0  0.56318  0.89924  0.44841  1.0000
  H   H53       1.0  0.49800  0.65255  0.50564  1.0000
  N   N3        1.0  0.50241  0.73485  0.51866  1.0000
  H   H54       1.0  0.48854  0.71403  0.57154  1.0000
  H   H55       1.0  0.50054  0.76431  0.51803  1.0000
  C   C82       1.0  0.36849  0.87676  0.37580  1.0000
  C   C83       1.0  0.34784  0.84510  0.45058  1.0000
  C   C84       1.0  0.30097  0.80312  0.44688  1.0000
  H   H56       1.0  0.36959  0.84986  0.50547  1.0000
  H   H57       1.0  0.30805  0.77897  0.57155  1.0000
  C   C85       1.0  0.88114  0.52145  0.37624  1.0000
  C   C86       1.0  0.84951  0.51058  0.45098  1.0000
  C   C87       1.0  0.80755  0.51550  0.44719  1.0000
  C   C88       1.0  0.79787  0.53407  0.36632  1.0000
  C   C89       1.0  0.75238  0.53215  0.35009  1.0000
  C   C90       1.0  0.73434  0.55548  0.40693  1.0000
  C   C91       1.0  0.68585  0.54540  0.39967  1.0000
  C   C92       1.0  0.65405  0.51229  0.33402  1.0000
  H   H58       1.0  0.75533  0.57716  0.45890  1.0000
  H   H59       1.0  0.67276  0.55895  0.44806  1.0000
  H   H60       1.0  0.85427  0.49363  0.50594  1.0000
  N   N4        1.0  0.77644  0.49819  0.51900  1.0000
  H   H61       1.0  0.78349  0.48455  0.57210  1.0000
  H   H62       1.0  0.74523  0.49659  0.51861  1.0000
  C   C93       1.0  0.50050  0.36403  0.37616  1.0000
  C   C94       1.0  0.51138  0.34333  0.45100  1.0000
  C   C95       1.0  0.50654  0.29649  0.44712  1.0000
  C   C96       1.0  0.48791  0.26820  0.36630  1.0000
  C   C97       1.0  0.48982  0.22462  0.35009  1.0000
  C   C98       1.0  0.46654  0.18329  0.40704  1.0000
  C   C99       1.0  0.47676  0.14497  0.39989  1.0000
  C   C100      1.0  0.50969  0.14613  0.33398  1.0000
  H   H63       1.0  0.44495  0.18267  0.45911  1.0000
  H   H64       1.0  0.46311  0.11826  0.44817  1.0000
  H   H65       1.0  0.52842  0.36512  0.50582  1.0000
  N   N5        1.0  0.52394  0.28274  0.51887  1.0000
  H   H66       1.0  0.53761  0.30344  0.57194  1.0000
  H   H67       1.0  0.52561  0.25317  0.51841  1.0000
  C   C101      1.0  0.65798  0.14088  0.37583  1.0000
  C   C102      1.0  0.67865  0.17251  0.45062  1.0000
  C   C103      1.0  0.72552  0.21449  0.44684  1.0000
  C   C104      1.0  0.75380  0.22416  0.36600  1.0000
  C   C105      1.0  0.79739  0.26964  0.34989  1.0000
  C   C106      1.0  0.83870  0.28766  0.40690  1.0000
  C   C107      1.0  0.87705  0.33619  0.39981  1.0000
  C   C108      1.0  0.87590  0.36796  0.33390  1.0000
  H   H68       1.0  0.83925  0.26673  0.45913  1.0000
  H   H69       1.0  0.90364  0.34926  0.44833  1.0000
  H   H70       1.0  0.65692  0.16774  0.50555  1.0000
  N   N6        1.0  0.73924  0.24565  0.51858  1.0000
  H   H71       1.0  0.71843  0.23869  0.57147  1.0000
  H   H72       1.0  0.76870  0.27697  0.51795  1.0000
