data_image0
_chemical_formula_structural       C8HC7HCH4C4O3CNC3H2NO2NHCNC3H2NO2NHCNC3H2NO2NHCNC3H2NO2NHCNC3H2NO2NHCNC3H2NO2NHOC8HC7HCH4C4O4C8HC7HCH4C4O4C4HC2NHNO2NHC4HC2NHNO2NHC4HC2NHNO2NHC4HC2NHNO2NHC4HC2NHNO2NHC4HC2NHNO2NH
_chemical_formula_sum              "C120 H54 O36 N36"
_cell_length_a       38.1558
_cell_length_b       38.1558
_cell_length_c       15.0756
_cell_angle_alpha    89.9994
_cell_angle_beta     90.0006
_cell_angle_gamma    120

_space_group_name_H-M_alt    "P 1"
_space_group_IT_number       1

loop_
  _space_group_symop_operation_xyz
  'x, y, z'

loop_
  _atom_site_type_symbol
  _atom_site_label
  _atom_site_symmetry_multiplicity
  _atom_site_fract_x
  _atom_site_fract_y
  _atom_site_fract_z
  _atom_site_occupancy
  C   C1        1.0  0.02054  0.52512  0.34130  1.0000
  C   C2        1.0  0.98483  0.48618  0.34175  1.0000
  C   C3        1.0  0.98776  0.45038  0.33863  1.0000
  C   C4        1.0  0.02639  0.45418  0.33580  1.0000
  C   C5        1.0  0.06215  0.49210  0.33683  1.0000
  C   C6        1.0  0.05925  0.52785  0.34023  1.0000
  C   C7        1.0  0.94713  0.48467  0.34677  1.0000
  C   C8        1.0  0.09398  0.56676  0.34174  1.0000
  H   H1        1.0  0.02859  0.42846  0.33285  1.0000
  C   C9        1.0  0.01760  0.56120  0.34146  1.0000
  C   C10       1.0  0.97889  0.55847  0.34045  1.0000
  C   C11       1.0  0.97599  0.59423  0.33736  1.0000
  C   C12       1.0  0.01175  0.63215  0.33653  1.0000
  C   C13       1.0  0.05038  0.63594  0.33934  1.0000
  C   C14       1.0  0.05331  0.60014  0.34215  1.0000
  C   C15       1.0  0.94416  0.51956  0.34174  1.0000
  H   H2        1.0  0.00956  0.65787  0.33376  1.0000
  C   C16       1.0  0.09101  0.60164  0.34708  1.0000
  H   H3        1.0  0.91564  0.51548  0.33979  1.0000
  H   H4        1.0  0.92058  0.45802  0.35301  1.0000
  H   H5        1.0  0.11756  0.62829  0.35342  1.0000
  H   H6        1.0  0.12250  0.57085  0.33969  1.0000
  C   C17       1.0  0.09931  0.49216  0.32880  1.0000
  C   C18       1.0  0.95374  0.41039  0.34048  1.0000
  C   C19       1.0  0.93884  0.59417  0.32921  1.0000
  C   C20       1.0  0.08440  0.67593  0.34140  1.0000
  O   O1        1.0  0.10110  0.46790  0.26543  1.0000
  O   O2        1.0  0.95649  0.38286  0.39238  1.0000
  O   O3        1.0  0.08165  0.70336  0.39364  1.0000
  C   C21       1.0  0.18685  0.52277  0.29185  1.0000
  N   N1        1.0  0.22349  0.52582  0.28474  1.0000
  C   C22       1.0  0.30128  0.53272  0.24939  1.0000
  C   C23       1.0  0.33156  0.52214  0.23546  1.0000
  C   C24       1.0  0.34306  0.50390  0.30242  1.0000
  H   H7        1.0  0.34562  0.52811  0.17501  1.0000
  H   H8        1.0  0.17238  0.52269  0.23487  1.0000
  N   N2        1.0  0.29150  0.55212  0.18163  1.0000
  O   O4        1.0  0.27855  0.53056  0.11316  1.0000
  O   O5        1.0  0.32148  0.58565  0.16083  1.0000
  N   N3        1.0  0.37447  0.49662  0.28725  1.0000
  H   H9        1.0  0.39270  0.51160  0.23844  1.0000
  C   C25       1.0  0.53941  0.73134  0.29210  1.0000
  N   N4        1.0  0.53636  0.76493  0.28490  1.0000
  C   C26       1.0  0.52960  0.83587  0.24929  1.0000
  C   C27       1.0  0.54023  0.87674  0.23527  1.0000
  C   C28       1.0  0.55846  0.90648  0.30221  1.0000
  H   H10       1.0  0.53431  0.88483  0.17476  1.0000
  H   H11       1.0  0.53951  0.71693  0.23517  1.0000
  N   N5        1.0  0.51021  0.80668  0.18154  1.0000
  O   O6        1.0  0.53180  0.81525  0.11313  1.0000
  O   O7        1.0  0.47671  0.80316  0.16062  1.0000
  N   N6        1.0  0.56579  0.94518  0.28689  1.0000
  H   H12       1.0  0.55079  0.94843  0.23813  1.0000
  C   C29       1.0  0.33089  0.87560  0.29200  1.0000
  N   N7        1.0  0.29727  0.83898  0.28489  1.0000
  C   C30       1.0  0.22637  0.76116  0.24967  1.0000
  C   C31       1.0  0.18553  0.73083  0.23579  1.0000
  C   C32       1.0  0.15582  0.71930  0.30280  1.0000
  H   H13       1.0  0.17745  0.71675  0.17536  1.0000
  H   H14       1.0  0.34532  0.89005  0.23504  1.0000
  N   N8        1.0  0.25555  0.77095  0.18189  1.0000
  O   O8        1.0  0.24690  0.78384  0.11338  1.0000
  O   O9        1.0  0.25916  0.74100  0.16119  1.0000
  N   N9        1.0  0.11713  0.68789  0.28762  1.0000
  H   H15       1.0  0.11385  0.66971  0.23868  1.0000
  C   C33       1.0  0.85133  0.56365  0.29195  1.0000
  N   N10       1.0  0.81470  0.56063  0.28476  1.0000
  C   C34       1.0  0.73692  0.55375  0.24928  1.0000
  C   C35       1.0  0.70666  0.56435  0.23531  1.0000
  C   C36       1.0  0.69514  0.58255  0.30229  1.0000
  H   H16       1.0  0.69264  0.55842  0.17482  1.0000
  H   H17       1.0  0.86584  0.56376  0.23501  1.0000
  N   N11       1.0  0.74673  0.53437  0.18152  1.0000
  O   O10       1.0  0.75972  0.55596  0.11309  1.0000
  O   O11       1.0  0.71676  0.50086  0.16064  1.0000
  N   N12       1.0  0.66379  0.58992  0.28697  1.0000
  H   H18       1.0  0.64554  0.57495  0.23821  1.0000
  C   C37       1.0  0.49883  0.35517  0.29219  1.0000
  N   N13       1.0  0.50187  0.32157  0.28501  1.0000
  C   C38       1.0  0.50871  0.25066  0.24949  1.0000
  C   C39       1.0  0.49813  0.20980  0.23552  1.0000
  C   C40       1.0  0.47991  0.18006  0.30246  1.0000
  H   H19       1.0  0.50408  0.20172  0.17503  1.0000
  H   H20       1.0  0.49875  0.36958  0.23525  1.0000
  N   N14       1.0  0.52808  0.27984  0.18173  1.0000
  O   O12       1.0  0.50649  0.27124  0.11331  1.0000
  O   O13       1.0  0.56160  0.28340  0.16084  1.0000
  N   N15       1.0  0.47263  0.14137  0.28721  1.0000
  H   H21       1.0  0.48762  0.13812  0.23842  1.0000
  C   C41       1.0  0.70724  0.21099  0.29219  1.0000
  N   N16       1.0  0.74081  0.24764  0.28497  1.0000
  C   C42       1.0  0.81168  0.32538  0.24934  1.0000
  C   C43       1.0  0.85254  0.35562  0.23525  1.0000
  C   C44       1.0  0.88233  0.36712  0.30209  1.0000
  H   H22       1.0  0.86059  0.36964  0.17474  1.0000
  H   H23       1.0  0.69283  0.19647  0.23528  1.0000
  N   N17       1.0  0.78246  0.31560  0.18170  1.0000
  O   O14       1.0  0.79098  0.30260  0.11319  1.0000
  O   O15       1.0  0.77892  0.34559  0.16091  1.0000
  N   N18       1.0  0.92102  0.39850  0.28673  1.0000
  H   H24       1.0  0.92424  0.41672  0.23795  1.0000
  O   O16       1.0  0.93712  0.61851  0.26593  1.0000
  C   C45       1.0  0.53718  0.56279  0.34164  1.0000
  C   C46       1.0  0.57612  0.56602  0.34212  1.0000
  C   C47       1.0  0.61192  0.60475  0.33908  1.0000
  C   C48       1.0  0.60812  0.63958  0.33632  1.0000
  C   C49       1.0  0.57020  0.63742  0.33734  1.0000
  C   C50       1.0  0.53444  0.59876  0.34061  1.0000
  C   C51       1.0  0.57763  0.52983  0.34712  1.0000
  C   C52       1.0  0.49553  0.59458  0.34201  1.0000
  H   H25       1.0  0.63384  0.66750  0.33343  1.0000
  C   C53       1.0  0.50110  0.52376  0.34166  1.0000
  C   C54       1.0  0.50383  0.48778  0.34063  1.0000
  C   C55       1.0  0.46808  0.44913  0.33744  1.0000
  C   C56       1.0  0.43016  0.44696  0.33645  1.0000
  C   C57       1.0  0.42636  0.48179  0.33924  1.0000
  C   C58       1.0  0.46216  0.52053  0.34223  1.0000
  C   C59       1.0  0.54274  0.49197  0.34198  1.0000
  H   H26       1.0  0.40444  0.41905  0.33358  1.0000
  C   C60       1.0  0.46065  0.55672  0.34723  1.0000
  H   H27       1.0  0.54684  0.46754  0.33993  1.0000
  H   H28       1.0  0.60429  0.52993  0.35330  1.0000
  H   H29       1.0  0.43399  0.55662  0.35344  1.0000
  H   H30       1.0  0.49144  0.61900  0.33993  1.0000
  C   C61       1.0  0.57017  0.67454  0.32938  1.0000
  C   C62       1.0  0.65191  0.61071  0.34088  1.0000
  C   C63       1.0  0.46812  0.41202  0.32944  1.0000
  C   C64       1.0  0.38636  0.47582  0.34110  1.0000
  O   O17       1.0  0.59434  0.70054  0.26585  1.0000
  O   O18       1.0  0.67945  0.64098  0.39277  1.0000
  O   O19       1.0  0.44393  0.38600  0.26592  1.0000
  O   O20       1.0  0.35887  0.44559  0.39312  1.0000
  C   C65       1.0  0.49970  0.04181  0.34149  1.0000
  C   C66       1.0  0.49651  0.07754  0.34211  1.0000
  C   C67       1.0  0.45778  0.07464  0.33915  1.0000
  C   C68       1.0  0.42294  0.03602  0.33626  1.0000
  C   C69       1.0  0.42507  0.00025  0.33713  1.0000
  C   C70       1.0  0.46371  0.00312  0.34038  1.0000
  C   C71       1.0  0.53271  0.11523  0.34712  1.0000
  C   C72       1.0  0.46786  0.96837  0.34170  1.0000
  H   H31       1.0  0.39503  0.03385  0.33340  1.0000
  C   C73       1.0  0.53872  0.04473  0.34150  1.0000
  C   C74       1.0  0.57471  0.08342  0.34053  1.0000
  C   C75       1.0  0.61335  0.08629  0.33730  1.0000
  C   C76       1.0  0.61548  0.05052  0.33629  1.0000
  C   C77       1.0  0.58063  0.01190  0.33901  1.0000
  C   C78       1.0  0.54191  0.00899  0.34197  1.0000
  C   C79       1.0  0.57055  0.11816  0.34193  1.0000
  H   H32       1.0  0.64339  0.05269  0.33344  1.0000
  C   C80       1.0  0.50570  0.97130  0.34691  1.0000
  H   H33       1.0  0.59500  0.14668  0.33990  1.0000
  H   H34       1.0  0.53264  0.14179  0.35336  1.0000
  H   H35       1.0  0.50577  0.94474  0.35305  1.0000
  H   H36       1.0  0.44341  0.93986  0.33961  1.0000
  C   C81       1.0  0.38795  0.96312  0.32909  1.0000
  C   C82       1.0  0.45185  0.10869  0.34112  1.0000
  C   C83       1.0  0.65048  0.12343  0.32946  1.0000
  C   C84       1.0  0.58655  0.97785  0.34085  1.0000
  O   O21       1.0  0.36190  0.96135  0.26573  1.0000
  O   O22       1.0  0.42158  0.10593  0.39303  1.0000
  O   O23       1.0  0.67652  0.12527  0.26599  1.0000
  O   O24       1.0  0.61687  0.98058  0.39260  1.0000
  C   C85       1.0  0.16888  0.51812  0.37602  1.0000
  C   C86       1.0  0.24690  0.52737  0.35411  1.0000
  C   C87       1.0  0.23207  0.52669  0.44124  1.0000
  C   C88       1.0  0.19305  0.52215  0.45050  1.0000
  H   H37       1.0  0.18160  0.52038  0.51279  1.0000
  C   C89       1.0  0.28182  0.52435  0.33360  1.0000
  C   C90       1.0  0.32414  0.49870  0.38578  1.0000
  N   N19       1.0  0.29466  0.50799  0.39669  1.0000
  H   H38       1.0  0.33223  0.48846  0.44000  1.0000
  N   N20       1.0  0.25560  0.53052  0.51718  1.0000
  O   O25       1.0  0.23833  0.49987  0.56632  1.0000
  O   O26       1.0  0.26318  0.56128  0.56206  1.0000
  N   N21       1.0  0.13053  0.51203  0.38681  1.0000
  H   H39       1.0  0.12525  0.52290  0.44060  1.0000
  C   C91       1.0  0.54406  0.71805  0.37631  1.0000
  C   C92       1.0  0.53479  0.78681  0.35421  1.0000
  C   C93       1.0  0.53549  0.77270  0.44137  1.0000
  C   C94       1.0  0.54004  0.73823  0.45073  1.0000
  H   H40       1.0  0.54179  0.72857  0.51305  1.0000
  C   C95       1.0  0.53793  0.82479  0.33356  1.0000
  C   C96       1.0  0.56357  0.89277  0.38565  1.0000
  N   N22       1.0  0.55424  0.85400  0.39663  1.0000
  H   H41       1.0  0.57380  0.91111  0.43985  1.0000
  N   N23       1.0  0.53167  0.79245  0.51726  1.0000
  O   O27       1.0  0.56233  0.80586  0.56637  1.0000
  O   O28       1.0  0.50092  0.76928  0.56219  1.0000
  N   N24       1.0  0.55017  0.68582  0.38720  1.0000
  H   H42       1.0  0.53929  0.66968  0.44099  1.0000
  C   C97       1.0  0.34429  0.89354  0.37618  1.0000
  C   C98       1.0  0.27540  0.81560  0.35429  1.0000
  C   C99       1.0  0.28959  0.83040  0.44142  1.0000
  C   C100      1.0  0.32412  0.86939  0.45067  1.0000
  H   H43       1.0  0.33386  0.88081  0.51295  1.0000
  C   C101      1.0  0.23745  0.78069  0.33382  1.0000
  C   C102      1.0  0.16950  0.73829  0.38609  1.0000
  N   N25       1.0  0.20826  0.76782  0.39693  1.0000
  H   H44       1.0  0.15119  0.73022  0.44031  1.0000
  N   N26       1.0  0.26988  0.80686  0.51736  1.0000
  O   O29       1.0  0.25657  0.82417  0.56657  1.0000
  O   O30       1.0  0.29305  0.79923  0.56216  1.0000
  N   N27       1.0  0.37660  0.93185  0.38697  1.0000
  H   H45       1.0  0.39276  0.93709  0.44073  1.0000
  C   C103      1.0  0.86925  0.56824  0.37618  1.0000
  C   C104      1.0  0.79125  0.55905  0.35409  1.0000
  C   C105      1.0  0.80603  0.55965  0.44125  1.0000
  C   C106      1.0  0.84504  0.56418  0.45059  1.0000
  H   H46       1.0  0.85642  0.56584  0.51291  1.0000
  C   C107      1.0  0.75636  0.56209  0.33352  1.0000
  C   C108      1.0  0.71405  0.58777  0.38565  1.0000
  N   N28       1.0  0.74352  0.57846  0.39659  1.0000
  H   H47       1.0  0.70598  0.59803  0.43985  1.0000
  N   N29       1.0  0.78243  0.55576  0.51712  1.0000
  O   O31       1.0  0.79967  0.58637  0.56638  1.0000
  O   O32       1.0  0.77483  0.52496  0.56190  1.0000
  N   N30       1.0  0.90756  0.57426  0.38706  1.0000
  H   H48       1.0  0.91278  0.56333  0.44082  1.0000
  C   C109      1.0  0.49418  0.36847  0.37639  1.0000
  C   C110      1.0  0.50340  0.29967  0.35433  1.0000
  C   C111      1.0  0.50273  0.31381  0.44149  1.0000
  C   C112      1.0  0.49821  0.34830  0.45083  1.0000
  H   H49       1.0  0.49644  0.35796  0.51314  1.0000
  C   C113      1.0  0.50037  0.26174  0.33374  1.0000
  C   C114      1.0  0.47474  0.19376  0.38585  1.0000
  N   N31       1.0  0.48403  0.23252  0.39681  1.0000
  H   H50       1.0  0.46452  0.17543  0.44007  1.0000
  N   N32       1.0  0.50655  0.29407  0.51739  1.0000
  O   O33       1.0  0.47589  0.28069  0.56652  1.0000
  O   O34       1.0  0.53731  0.31723  0.56229  1.0000
  N   N33       1.0  0.48810  0.40072  0.38726  1.0000
  H   H51       1.0  0.49898  0.41686  0.44104  1.0000
  C   C115      1.0  0.69398  0.19304  0.37642  1.0000
  C   C116      1.0  0.76269  0.27110  0.35428  1.0000
  C   C117      1.0  0.74861  0.25628  0.44145  1.0000
  C   C118      1.0  0.71416  0.21725  0.45083  1.0000
  H   H52       1.0  0.70451  0.20582  0.51315  1.0000
  C   C119      1.0  0.80065  0.30594  0.33359  1.0000
  C   C120      1.0  0.86866  0.34828  0.38553  1.0000
  N   N34       1.0  0.82989  0.31882  0.39659  1.0000
  H   H53       1.0  0.88703  0.35637  0.43968  1.0000
  N   N35       1.0  0.76837  0.27986  0.51731  1.0000
  O   O35       1.0  0.78181  0.26262  0.56640  1.0000
  O   O36       1.0  0.74520  0.28742  0.56228  1.0000
  N   N36       1.0  0.66176  0.15469  0.38731  1.0000
  H   H54       1.0  0.64560  0.14942  0.44107  1.0000
