data_image0
_chemical_formula_structural       C8HC7HCH4C4O3NC2HNHNC2HNHNC2HNHNC2HNHNC2HNHNC2HNHOC8HC7HCH4C4O4C8HC7HCH4C4O4CNCOCH3NHCNCOCH3NHCNCOCH3NHCNCOCH3NHCNCOCH3NHCNCOCH3NH
_chemical_formula_sum              "C90 H54 O18 N24"
_cell_length_a       29.8014
_cell_length_b       29.8014
_cell_length_c       15.1515
_cell_angle_alpha    89.9992
_cell_angle_beta     90.0008
_cell_angle_gamma    120

_space_group_name_H-M_alt    "P 1"
_space_group_IT_number       1

loop_
  _space_group_symop_operation_xyz
  'x, y, z'

loop_
  _atom_site_type_symbol
  _atom_site_label
  _atom_site_symmetry_multiplicity
  _atom_site_fract_x
  _atom_site_fract_y
  _atom_site_fract_z
  _atom_site_occupancy
  C   C1        1.0  0.02297  0.53041  0.31922  1.0000
  C   C2        1.0  0.97627  0.48134  0.31893  1.0000
  C   C3        1.0  0.97867  0.43479  0.31823  1.0000
  C   C4        1.0  0.02721  0.43800  0.32585  1.0000
  C   C5        1.0  0.07360  0.48580  0.32930  1.0000
  C   C6        1.0  0.07181  0.53236  0.32063  1.0000
  C   C7        1.0  0.92872  0.48093  0.31353  1.0000
  C   C8        1.0  0.11733  0.58135  0.31826  1.0000
  H   H1        1.0  0.02889  0.40448  0.32980  1.0000
  C   C9        1.0  0.02093  0.57746  0.31906  1.0000
  C   C10       1.0  0.97209  0.57551  0.32015  1.0000
  C   C11       1.0  0.97028  0.62208  0.32849  1.0000
  C   C12       1.0  0.01668  0.66987  0.32507  1.0000
  C   C13       1.0  0.06524  0.67308  0.31777  1.0000
  C   C14       1.0  0.06764  0.62653  0.31875  1.0000
  C   C15       1.0  0.92657  0.52652  0.31781  1.0000
  H   H2        1.0  0.01500  0.70340  0.32884  1.0000
  C   C16       1.0  0.11518  0.62693  0.31366  1.0000
  H   H3        1.0  0.89060  0.52274  0.31803  1.0000
  H   H4        1.0  0.89415  0.44737  0.30781  1.0000
  H   H5        1.0  0.14976  0.66049  0.30797  1.0000
  H   H6        1.0  0.15330  0.58513  0.31878  1.0000
  C   C17       1.0  0.11951  0.48513  0.34865  1.0000
  C   C18       1.0  0.93483  0.38499  0.30897  1.0000
  C   C19       1.0  0.92437  0.62274  0.34784  1.0000
  C   C20       1.0  0.10907  0.72289  0.30858  1.0000
  O   O1        1.0  0.11666  0.45026  0.40946  1.0000
  O   O2        1.0  0.93997  0.34875  0.26269  1.0000
  O   O3        1.0  0.10401  0.75902  0.26176  1.0000
  N   N1        1.0  0.27628  0.49741  0.26145  1.0000
  C   C21       1.0  0.23472  0.50173  0.23879  1.0000
  C   C22       1.0  0.20487  0.50594  0.30680  1.0000
  H   H7        1.0  0.22296  0.49688  0.17443  1.0000
  N   N2        1.0  0.15940  0.50424  0.29008  1.0000
  H   H8        1.0  0.15270  0.51131  0.23000  1.0000
  N   N3        1.0  0.57851  0.86470  0.26153  1.0000
  C   C23       1.0  0.57425  0.81885  0.23882  1.0000
  C   C24       1.0  0.57003  0.78477  0.30679  1.0000
  H   H9        1.0  0.57914  0.81198  0.17446  1.0000
  N   N4        1.0  0.57175  0.74101  0.29005  1.0000
  H   H10       1.0  0.56469  0.72728  0.22994  1.0000
  N   N5        1.0  0.21094  0.79959  0.26142  1.0000
  C   C25       1.0  0.25679  0.84115  0.23862  1.0000
  C   C26       1.0  0.29090  0.87107  0.30652  1.0000
  H   H11       1.0  0.26365  0.85284  0.17422  1.0000
  N   N6        1.0  0.33467  0.91652  0.28965  1.0000
  H   H12       1.0  0.34840  0.92310  0.22955  1.0000
  N   N7        1.0  0.76735  0.61020  0.26153  1.0000
  C   C27       1.0  0.80891  0.60593  0.23860  1.0000
  C   C28       1.0  0.83889  0.60178  0.30642  1.0000
  H   H13       1.0  0.82057  0.61082  0.17419  1.0000
  N   N8        1.0  0.88439  0.60358  0.28947  1.0000
  H   H14       1.0  0.89095  0.59643  0.22935  1.0000
  N   N9        1.0  0.46566  0.24302  0.26121  1.0000
  C   C29       1.0  0.46988  0.28883  0.23833  1.0000
  C   C30       1.0  0.47394  0.32291  0.30618  1.0000
  H   H15       1.0  0.46505  0.29565  0.17390  1.0000
  N   N10       1.0  0.47214  0.36660  0.28924  1.0000
  H   H16       1.0  0.47930  0.38036  0.22915  1.0000
  N   N11       1.0  0.83300  0.30826  0.26156  1.0000
  C   C31       1.0  0.78719  0.26668  0.23868  1.0000
  C   C32       1.0  0.75304  0.23672  0.30652  1.0000
  H   H17       1.0  0.78039  0.25499  0.17428  1.0000
  N   N12       1.0  0.70931  0.19125  0.28960  1.0000
  H   H18       1.0  0.69560  0.18468  0.22948  1.0000
  O   O4        1.0  0.92726  0.65781  0.40828  1.0000
  C   C33       1.0  0.54541  0.57834  0.31912  1.0000
  C   C34       1.0  0.59445  0.58066  0.31893  1.0000
  C   C35       1.0  0.64102  0.62959  0.31832  1.0000
  C   C36       1.0  0.63785  0.67494  0.32594  1.0000
  C   C37       1.0  0.59007  0.67358  0.32929  1.0000
  C   C38       1.0  0.54350  0.62525  0.32050  1.0000
  C   C39       1.0  0.59482  0.53350  0.31343  1.0000
  C   C40       1.0  0.49453  0.62183  0.31801  1.0000
  H   H19       1.0  0.67138  0.71013  0.32991  1.0000
  C   C41       1.0  0.49833  0.52927  0.31889  1.0000
  C   C42       1.0  0.50023  0.48235  0.32001  1.0000
  C   C43       1.0  0.45363  0.43399  0.32831  1.0000
  C   C44       1.0  0.40587  0.43266  0.32487  1.0000
  C   C45       1.0  0.40271  0.47802  0.31757  1.0000
  C   C46       1.0  0.44928  0.52695  0.31853  1.0000
  C   C47       1.0  0.54920  0.48578  0.31768  1.0000
  H   H20       1.0  0.37232  0.39746  0.32859  1.0000
  C   C48       1.0  0.44892  0.57412  0.31332  1.0000
  H   H21       1.0  0.55296  0.45358  0.31796  1.0000
  H   H22       1.0  0.62836  0.53246  0.30781  1.0000
  H   H23       1.0  0.41539  0.57517  0.30759  1.0000
  H   H24       1.0  0.49078  0.65404  0.31851  1.0000
  C   C49       1.0  0.59077  0.72017  0.34866  1.0000
  C   C50       1.0  0.69082  0.63557  0.30909  1.0000
  C   C51       1.0  0.45292  0.38739  0.34757  1.0000
  C   C52       1.0  0.35290  0.47204  0.30842  1.0000
  O   O5        1.0  0.62561  0.75214  0.40956  1.0000
  O   O6        1.0  0.72721  0.67695  0.26298  1.0000
  O   O7        1.0  0.41781  0.35518  0.40793  1.0000
  O   O8        1.0  0.31662  0.43089  0.26178  1.0000
  C   C53       1.0  0.49749  0.05290  0.31899  1.0000
  C   C54       1.0  0.49519  0.09964  0.31872  1.0000
  C   C55       1.0  0.44627  0.09729  0.31792  1.0000
  C   C56       1.0  0.40090  0.04878  0.32541  1.0000
  C   C57       1.0  0.40223  0.00235  0.32890  1.0000
  C   C58       1.0  0.45057  0.00409  0.32026  1.0000
  C   C59       1.0  0.54236  0.14715  0.31337  1.0000
  C   C60       1.0  0.45397  0.95854  0.31780  1.0000
  H   H25       1.0  0.36571  0.04714  0.32924  1.0000
  C   C61       1.0  0.54656  0.05488  0.31893  1.0000
  C   C62       1.0  0.59348  0.10369  0.32016  1.0000
  C   C63       1.0  0.64182  0.10542  0.32871  1.0000
  C   C64       1.0  0.64314  0.05899  0.32523  1.0000
  C   C65       1.0  0.59777  0.01048  0.31772  1.0000
  C   C66       1.0  0.54885  0.00814  0.31860  1.0000
  C   C67       1.0  0.59007  0.14924  0.31780  1.0000
  H   H26       1.0  0.67833  0.06062  0.32906  1.0000
  C   C68       1.0  0.50168  0.96063  0.31324  1.0000
  H   H27       1.0  0.62229  0.18519  0.31813  1.0000
  H   H28       1.0  0.54342  0.18175  0.30769  1.0000
  H   H29       1.0  0.50062  0.92603  0.30755  1.0000
  H   H30       1.0  0.42175  0.92258  0.31815  1.0000
  C   C69       1.0  0.35565  0.95643  0.34813  1.0000
  C   C70       1.0  0.44029  0.14112  0.30866  1.0000
  C   C71       1.0  0.68841  0.15130  0.34804  1.0000
  C   C72       1.0  0.60366  0.96659  0.30856  1.0000
  O   O9        1.0  0.32352  0.95943  0.40855  1.0000
  O   O10       1.0  0.39914  0.13614  0.26184  1.0000
  O   O11       1.0  0.72054  0.14838  0.40855  1.0000
  O   O12       1.0  0.64499  0.97163  0.26224  1.0000
  C   C73       1.0  0.29360  0.50105  0.34587  1.0000
  N   N13       1.0  0.22294  0.51111  0.39091  1.0000
  C   C74       1.0  0.26676  0.51069  0.41324  1.0000
  O   O13       1.0  0.28186  0.51699  0.49974  1.0000
  C   C75       1.0  0.25444  0.47039  0.55109  1.0000
  H   H31       1.0  0.26930  0.47902  0.61840  1.0000
  H   H32       1.0  0.26066  0.43964  0.52544  1.0000
  H   H33       1.0  0.21293  0.45681  0.55320  1.0000
  N   N14       1.0  0.33618  0.49710  0.36230  1.0000
  H   H34       1.0  0.35491  0.51142  0.41744  1.0000
  C   C76       1.0  0.57481  0.87832  0.34595  1.0000
  N   N15       1.0  0.56481  0.79762  0.39091  1.0000
  C   C77       1.0  0.56517  0.84182  0.41328  1.0000
  O   O14       1.0  0.55881  0.85057  0.49978  1.0000
  C   C78       1.0  0.60538  0.86977  0.55121  1.0000
  H   H35       1.0  0.59670  0.87595  0.61851  1.0000
  H   H36       1.0  0.63612  0.90677  0.52562  1.0000
  H   H37       1.0  0.61902  0.84188  0.55330  1.0000
  N   N16       1.0  0.57867  0.92481  0.36241  1.0000
  H   H38       1.0  0.56433  0.92919  0.41755  1.0000
  C   C79       1.0  0.19733  0.78235  0.34589  1.0000
  N   N17       1.0  0.27805  0.85309  0.39069  1.0000
  C   C80       1.0  0.23385  0.80928  0.41316  1.0000
  O   O15       1.0  0.22511  0.79426  0.49971  1.0000
  C   C81       1.0  0.20594  0.82169  0.55101  1.0000
  H   H39       1.0  0.19978  0.80691  0.61836  1.0000
  H   H40       1.0  0.16894  0.81542  0.52541  1.0000
  H   H41       1.0  0.23383  0.86322  0.55299  1.0000
  N   N18       1.0  0.15084  0.73974  0.36246  1.0000
  H   H42       1.0  0.14649  0.72105  0.41762  1.0000
  C   C82       1.0  0.75016  0.60653  0.34604  1.0000
  N   N19       1.0  0.82094  0.59659  0.39063  1.0000
  C   C83       1.0  0.77712  0.59692  0.41322  1.0000
  O   O16       1.0  0.76216  0.59063  0.49979  1.0000
  C   C84       1.0  0.78959  0.63724  0.55109  1.0000
  H   H43       1.0  0.77485  0.62861  0.61847  1.0000
  H   H44       1.0  0.78326  0.66794  0.52554  1.0000
  H   H45       1.0  0.83112  0.65091  0.55298  1.0000
  N   N20       1.0  0.70758  0.61044  0.36272  1.0000
  H   H46       1.0  0.68889  0.59607  0.41788  1.0000
  C   C85       1.0  0.46927  0.22945  0.34571  1.0000
  N   N21       1.0  0.47908  0.31011  0.39039  1.0000
  C   C86       1.0  0.47877  0.26597  0.41294  1.0000
  O   O17       1.0  0.48502  0.25726  0.49951  1.0000
  C   C87       1.0  0.43838  0.23803  0.55073  1.0000
  H   H47       1.0  0.44698  0.23190  0.61812  1.0000
  H   H48       1.0  0.40770  0.20102  0.52511  1.0000
  H   H49       1.0  0.42469  0.26589  0.55263  1.0000
  N   N22       1.0  0.46541  0.18298  0.36234  1.0000
  H   H50       1.0  0.47970  0.17862  0.41756  1.0000
  C   C88       1.0  0.84653  0.32549  0.34606  1.0000
  N   N23       1.0  0.76581  0.25471  0.39071  1.0000
  C   C89       1.0  0.80997  0.29853  0.41326  1.0000
  O   O18       1.0  0.81863  0.31355  0.49981  1.0000
  C   C90       1.0  0.83784  0.28616  0.55117  1.0000
  H   H51       1.0  0.84393  0.30093  0.61853  1.0000
  H   H52       1.0  0.87487  0.29249  0.52565  1.0000
  H   H53       1.0  0.80999  0.24462  0.55311  1.0000
  N   N24       1.0  0.89299  0.36812  0.36271  1.0000
  H   H54       1.0  0.89727  0.38682  0.41785  1.0000
