data_image0
_chemical_formula_structural       C2HNH2C6HNOCH2COCNHOCHC3HNH2NO2C3HNOC7H2NHNOC3HC3HC4HNH2C5H2NOC5HNO3C2HC3HNH2NO2HC7H2NH2NO2C7H2NH2NO2C3H2C3H2C3H2C6H3OC7H2NH2NO2HNH2C2HC3HNH2NO2C2HC3HNH2NO2
_chemical_formula_sum              "C96 H60 N24 O24"
_cell_length_a       34.4682
_cell_length_b       34.4788
_cell_length_c       14.787
_cell_angle_alpha    90
_cell_angle_beta     90
_cell_angle_gamma    119.993

_space_group_name_H-M_alt    "P 1"
_space_group_IT_number       1

loop_
  _space_group_symop_operation_xyz
  'x, y, z'

loop_
  _atom_site_type_symbol
  _atom_site_label
  _atom_site_symmetry_multiplicity
  _atom_site_fract_x
  _atom_site_fract_y
  _atom_site_fract_z
  _atom_site_occupancy
  C   C1        1.0  0.89715  0.06250  0.28846  1.0000
  C   C2        1.0  0.92343  0.04134  0.29055  1.0000
  H   H1        1.0  0.91643  0.01634  0.24493  1.0000
  N   N1        1.0  0.86269  0.04737  0.22831  1.0000
  H   H2        1.0  0.85600  0.02267  0.18743  1.0000
  H   H3        1.0  0.84243  0.05926  0.22656  1.0000
  C   C3        1.0  0.05544  0.02941  0.35253  1.0000
  C   C4        1.0  0.03073  0.05220  0.35196  1.0000
  C   C5        1.0  0.98326  0.02933  0.35259  1.0000
  C   C6        1.0  0.10378  0.05381  0.35284  1.0000
  C   C7        1.0  0.12962  0.04459  0.41502  1.0000
  C   C8        1.0  0.17707  0.07008  0.41210  1.0000
  H   H4        1.0  0.19499  0.06272  0.45729  1.0000
  N   N2        1.0  0.10789  0.01112  0.48196  1.0000
  O   O1        1.0  0.11724  0.02728  0.56037  1.0000
  C   C9        1.0  0.95886  0.05328  0.35294  1.0000
  H   H5        1.0  0.86009  0.07337  0.50323  1.0000
  H   H6        1.0  0.04784  0.08645  0.35092  1.0000
  C   C10       1.0  0.12724  0.08924  0.29046  1.0000
  O   O2        1.0  0.66089  0.08900  0.23954  1.0000
  C   C11       1.0  0.96813  0.08835  0.41512  1.0000
  N   N3        1.0  0.84751  0.09297  0.49839  1.0000
  H   H7        1.0  0.82783  0.09139  0.54722  1.0000
  O   O3        1.0  0.98541  0.09324  0.56048  1.0000
  C   C12       1.0  0.17467  0.11557  0.28839  1.0000
  H   H8        1.0  0.10921  0.09622  0.24484  1.0000
  C   C13       1.0  0.34454  0.17486  0.34640  1.0000
  C   C14       1.0  0.31880  0.14717  0.27341  1.0000
  C   C15       1.0  0.27138  0.12482  0.27753  1.0000
  H   H9        1.0  0.25344  0.10492  0.22428  1.0000
  N   N4        1.0  0.19396  0.15003  0.22826  1.0000
  H   H10       1.0  0.17592  0.15669  0.18737  1.0000
  H   H11       1.0  0.22610  0.17033  0.22654  1.0000
  N   N5        1.0  0.34083  0.14353  0.19571  1.0000
  O   O4        1.0  0.33152  0.15844  0.12649  1.0000
  O   O5        1.0  0.33079  0.10366  0.18122  1.0000
  C   C16       1.0  0.83810  0.17327  0.34642  1.0000
  C   C17       1.0  0.86578  0.17517  0.27344  1.0000
  C   C18       1.0  0.88806  0.15004  0.27756  1.0000
  H   H12       1.0  0.90796  0.15196  0.22432  1.0000
  N   N6        1.0  0.86948  0.20086  0.19575  1.0000
  O   O6        1.0  0.85454  0.17666  0.12652  1.0000
  C   C19       1.0  0.69674  0.18057  0.36523  1.0000
  C   C20       1.0  0.66637  0.14990  0.30096  1.0000
  C   C21       1.0  0.62158  0.14122  0.29875  1.0000
  C   C22       1.0  0.60701  0.16478  0.35472  1.0000
  C   C23       1.0  0.56501  0.16222  0.33590  1.0000
  C   C24       1.0  0.55876  0.18298  0.25819  1.0000
  C   C25       1.0  0.52003  0.18724  0.25328  1.0000
  H   H13       1.0  0.51706  0.20483  0.20042  1.0000
  H   H14       1.0  0.60065  0.12065  0.24920  1.0000
  N   N7        1.0  0.58975  0.20204  0.19096  1.0000
  H   H15       1.0  0.61813  0.20261  0.19234  1.0000
  N   N8        1.0  0.68209  0.13103  0.23556  1.0000
  O   O7        1.0  0.67889  0.14283  0.15678  1.0000
  C   C26       1.0  0.46328  0.19646  0.33258  1.0000
  C   C27       1.0  0.39265  0.19803  0.34617  1.0000
  C   C28       1.0  0.41600  0.17404  0.33617  1.0000
  H   H16       1.0  0.39848  0.13987  0.33097  1.0000
  C   C29       1.0  0.74438  0.20049  0.35574  1.0000
  C   C30       1.0  0.76765  0.17633  0.35647  1.0000
  C   C31       1.0  0.81497  0.19824  0.34617  1.0000
  H   H17       1.0  0.74983  0.14231  0.36471  1.0000
  C   C32       1.0  0.20022  0.10571  0.35035  1.0000
  C   C33       1.0  0.24834  0.12970  0.35187  1.0000
  C   C34       1.0  0.27397  0.15778  0.42501  1.0000
  C   C35       1.0  0.32143  0.17961  0.42084  1.0000
  H   H18       1.0  0.33971  0.19948  0.47385  1.0000
  N   N9        1.0  0.25473  0.16528  0.49836  1.0000
  H   H19       1.0  0.22254  0.15265  0.50320  1.0000
  H   H20       1.0  0.27281  0.18496  0.54719  1.0000
  C   C36       1.0  0.94268  0.11035  0.41218  1.0000
  C   C37       1.0  0.90706  0.09792  0.35041  1.0000
  C   C38       1.0  0.88313  0.12210  0.35190  1.0000
  C   C39       1.0  0.85506  0.11971  0.42504  1.0000
  C   C40       1.0  0.83330  0.14540  0.42087  1.0000
  H   H21       1.0  0.81344  0.14384  0.47387  1.0000
  H   H22       1.0  0.95007  0.13563  0.45737  1.0000
  N   N10       1.0  0.00159  0.10003  0.48208  1.0000
  O   O8        1.0  0.03183  0.14037  0.47565  1.0000
  C   C41       1.0  0.63691  0.19449  0.42157  1.0000
  C   C42       1.0  0.68039  0.20010  0.42781  1.0000
  C   C43       1.0  0.48898  0.17449  0.32533  1.0000
  C   C44       1.0  0.49452  0.15243  0.40090  1.0000
  C   C45       1.0  0.53144  0.14506  0.40352  1.0000
  H   H23       1.0  0.53634  0.13137  0.46084  1.0000
  N   N11       1.0  0.46555  0.14198  0.47617  1.0000
  O   O9        1.0  0.48636  0.16368  0.54525  1.0000
  O   O10       1.0  0.44611  0.10090  0.49424  1.0000
  O   O11       1.0  0.90938  0.23062  0.18127  1.0000
  C   C46       1.0  0.95026  0.83804  0.28841  1.0000
  C   C47       1.0  0.97138  0.88546  0.29049  1.0000
  H   H24       1.0  0.99639  0.90347  0.24487  1.0000
  C   C48       1.0  0.83962  0.66822  0.34634  1.0000
  C   C49       1.0  0.83769  0.69398  0.27335  1.0000
  C   C50       1.0  0.86277  0.74138  0.27750  1.0000
  H   H25       1.0  0.86083  0.75934  0.22426  1.0000
  N   N12       1.0  0.96543  0.81874  0.22827  1.0000
  H   H26       1.0  0.99013  0.83677  0.18739  1.0000
  H   H27       1.0  0.95357  0.78660  0.22654  1.0000
  N   N13       1.0  0.81202  0.67199  0.19564  1.0000
  O   O12       1.0  0.83624  0.68128  0.12643  1.0000
  O   O13       1.0  0.78221  0.68206  0.18115  1.0000
  H   H28       1.0  0.58491  0.21690  0.13976  1.0000
  C   C51       1.0  0.83230  0.51957  0.36526  1.0000
  C   C52       1.0  0.86305  0.51995  0.30103  1.0000
  C   C53       1.0  0.87170  0.48383  0.29882  1.0000
  C   C54       1.0  0.84818  0.44573  0.35486  1.0000
  C   C55       1.0  0.85079  0.40632  0.33606  1.0000
  C   C56       1.0  0.83008  0.37934  0.25828  1.0000
  C   C57       1.0  0.82596  0.33642  0.25316  1.0000
  H   H29       1.0  0.80828  0.31583  0.20042  1.0000
  H   H30       1.0  0.89235  0.48354  0.24935  1.0000
  N   N14       1.0  0.81096  0.39122  0.19111  1.0000
  H   H31       1.0  0.81027  0.41897  0.19261  1.0000
  H   H32       1.0  0.79615  0.37156  0.13984  1.0000
  N   N15       1.0  0.88193  0.55453  0.23566  1.0000
  O   O14       1.0  0.87016  0.53955  0.15685  1.0000
  O   O15       1.0  0.92397  0.57537  0.23970  1.0000
  C   C58       1.0  0.49313  0.31626  0.36533  1.0000
  C   C59       1.0  0.49282  0.34662  0.30103  1.0000
  C   C60       1.0  0.52894  0.39139  0.29880  1.0000
  C   C61       1.0  0.56707  0.40595  0.35476  1.0000
  C   C62       1.0  0.60651  0.44793  0.33590  1.0000
  C   C63       1.0  0.63348  0.45416  0.25810  1.0000
  C   C64       1.0  0.67647  0.49289  0.25310  1.0000
  H   H33       1.0  0.69701  0.49586  0.20020  1.0000
  H   H34       1.0  0.52928  0.41231  0.24925  1.0000
  N   N16       1.0  0.62153  0.42319  0.19088  1.0000
  H   H35       1.0  0.59373  0.39480  0.19232  1.0000
  H   H36       1.0  0.64120  0.42801  0.13964  1.0000
  N   N17       1.0  0.45823  0.33091  0.23565  1.0000
  O   O16       1.0  0.47323  0.33409  0.15686  1.0000
  O   O17       1.0  0.43739  0.35210  0.23961  1.0000
  C   C65       1.0  0.96046  0.98185  0.35197  1.0000
  C   C66       1.0  0.98334  0.95725  0.35256  1.0000
  C   C67       1.0  0.03084  0.98195  0.35194  1.0000
  H   H37       1.0  0.92620  0.96470  0.35095  1.0000
  H   H38       1.0  0.04800  0.96485  0.35090  1.0000
  C   C68       1.0  0.48703  0.24345  0.34214  1.0000
  C   C69       1.0  0.46544  0.26863  0.35580  1.0000
  C   C70       1.0  0.41800  0.24533  0.35651  1.0000
  H   H39       1.0  0.40177  0.26313  0.36476  1.0000
  H   H40       1.0  0.52138  0.25984  0.34000  1.0000
  C   C71       1.0  0.81660  0.27044  0.33250  1.0000
  C   C72       1.0  0.76960  0.24725  0.34207  1.0000
  C   C73       1.0  0.83900  0.24556  0.33615  1.0000
  H   H41       1.0  0.87319  0.26220  0.33099  1.0000
  H   H42       1.0  0.75323  0.26522  0.33996  1.0000
  C   C74       1.0  0.74244  0.54956  0.33237  1.0000
  C   C75       1.0  0.76565  0.52577  0.34201  1.0000
  C   C76       1.0  0.81243  0.54732  0.35568  1.0000
  C   C77       1.0  0.83659  0.59475  0.35643  1.0000
  C   C78       1.0  0.81466  0.62013  0.34609  1.0000
  C   C79       1.0  0.76732  0.59683  0.33603  1.0000
  H   H43       1.0  0.87061  0.61094  0.36472  1.0000
  H   H44       1.0  0.75067  0.61436  0.33085  1.0000
  H   H45       1.0  0.74768  0.49144  0.33991  1.0000
  O   O18       1.0  0.11805  0.98092  0.47552  1.0000
  C   C80       1.0  0.95941  0.90892  0.35288  1.0000
  C   C81       1.0  0.92433  0.88310  0.41505  1.0000
  C   C82       1.0  0.90237  0.83566  0.41212  1.0000
  C   C83       1.0  0.91485  0.81251  0.35037  1.0000
  C   C84       1.0  0.89069  0.76440  0.35186  1.0000
  C   C85       1.0  0.89312  0.73875  0.42499  1.0000
  C   C86       1.0  0.86747  0.69130  0.42079  1.0000
  H   H46       1.0  0.86904  0.67301  0.47381  1.0000
  H   H47       1.0  0.87709  0.81776  0.45730  1.0000
  N   N18       1.0  0.91985  0.75796  0.49836  1.0000
  H   H48       1.0  0.93942  0.79013  0.50322  1.0000
  H   H49       1.0  0.92145  0.73987  0.54718  1.0000
  N   N19       1.0  0.91261  0.90484  0.48199  1.0000
  O   O19       1.0  0.87224  0.89470  0.47555  1.0000
  O   O20       1.0  0.91940  0.89547  0.56040  1.0000
  H   H50       1.0  0.70236  0.22286  0.47350  1.0000
  N   N20       1.0  0.62708  0.22030  0.47620  1.0000
  H   H51       1.0  0.64880  0.24118  0.51948  1.0000
  H   H52       1.0  0.59921  0.22062  0.47132  1.0000
  C   C87       1.0  0.81846  0.44591  0.42171  1.0000
  C   C88       1.0  0.81283  0.48376  0.42799  1.0000
  H   H53       1.0  0.79003  0.48297  0.47354  1.0000
  C   C89       1.0  0.83864  0.31813  0.32536  1.0000
  C   C90       1.0  0.86062  0.34566  0.40102  1.0000
  C   C91       1.0  0.86800  0.38994  0.40365  1.0000
  H   H54       1.0  0.88157  0.40850  0.46103  1.0000
  N   N21       1.0  0.79266  0.41029  0.47636  1.0000
  H   H55       1.0  0.77178  0.41111  0.51965  1.0000
  H   H56       1.0  0.79237  0.38212  0.47148  1.0000
  N   N22       1.0  0.87096  0.32708  0.47634  1.0000
  O   O21       1.0  0.84918  0.32617  0.54531  1.0000
  O   O22       1.0  0.91203  0.34870  0.49462  1.0000
  C   C92       1.0  0.56689  0.37606  0.42163  1.0000
  C   C93       1.0  0.52902  0.33261  0.42792  1.0000
  H   H57       1.0  0.52980  0.31064  0.47360  1.0000
  C   C94       1.0  0.69474  0.52389  0.32519  1.0000
  C   C95       1.0  0.66724  0.51840  0.40089  1.0000
  C   C96       1.0  0.62295  0.48148  0.40355  1.0000
  H   H58       1.0  0.60439  0.47658  0.46090  1.0000
  N   N23       1.0  0.60254  0.38587  0.47623  1.0000
  H   H59       1.0  0.60171  0.36417  0.51950  1.0000
  H   H60       1.0  0.63073  0.41371  0.47129  1.0000
  N   N24       1.0  0.68581  0.54735  0.47615  1.0000
  O   O23       1.0  0.68673  0.52653  0.54518  1.0000
  O   O24       1.0  0.66417  0.56678  0.49434  1.0000
