data_image0
_chemical_formula_structural       C2HCHC4NC2NCHCH2C4NC2NCHCHC4NC2NCHCH2C2H6C2H6C2H6C21H13C24H15C24H15C24H15C2H5C2H6C2H5C4NC2NCHCHC4NC2NCHCHC4NC2NCHCH
_chemical_formula_sum              "C156 H108 N12"
_cell_length_a       45.8161
_cell_length_b       45.816
_cell_length_c       14.9632
_cell_angle_alpha    90
_cell_angle_beta     90
_cell_angle_gamma    120

_space_group_name_H-M_alt    "P 1"
_space_group_IT_number       1

loop_
  _space_group_symop_operation_xyz
  'x, y, z'

loop_
  _atom_site_type_symbol
  _atom_site_label
  _atom_site_symmetry_multiplicity
  _atom_site_fract_x
  _atom_site_fract_y
  _atom_site_fract_z
  _atom_site_occupancy
  C   C1        1.0  0.01116  0.03184  0.34618  1.0000
  C   C2        1.0  0.01169  0.97927  0.35067  1.0000
  H   H1        1.0  0.02386  0.05760  0.34562  1.0000
  C   C3        1.0  0.02998  0.01497  0.34964  1.0000
  H   H2        1.0  0.02458  0.96645  0.35652  1.0000
  C   C4        1.0  0.24779  0.12669  0.33528  1.0000
  C   C5        1.0  0.22877  0.11434  0.25542  1.0000
  C   C6        1.0  0.19293  0.09623  0.25733  1.0000
  C   C7        1.0  0.17500  0.08964  0.33911  1.0000
  N   N1        1.0  0.17657  0.08619  0.17774  1.0000
  C   C8        1.0  0.19178  0.09146  0.09682  1.0000
  C   C9        1.0  0.22750  0.10912  0.09501  1.0000
  N   N2        1.0  0.24394  0.11983  0.17422  1.0000
  C   C10       1.0  0.17003  0.07901  0.01686  1.0000
  H   H3        1.0  0.14335  0.06610  0.03485  1.0000
  C   C11       1.0  0.24868  0.11673  0.01438  1.0000
  H   H4        1.0  0.26587  0.10690  0.02263  1.0000
  H   H5        1.0  0.26348  0.14398  0.00493  1.0000
  C   C12       1.0  0.86474  0.12164  0.32826  1.0000
  C   C13       1.0  0.87686  0.11523  0.24758  1.0000
  C   C14       1.0  0.89475  0.09726  0.24773  1.0000
  C   C15       1.0  0.90136  0.08540  0.32857  1.0000
  N   N3        1.0  0.90450  0.09120  0.16737  1.0000
  C   C16       1.0  0.89914  0.10161  0.08726  1.0000
  C   C17       1.0  0.88170  0.11989  0.08720  1.0000
  N   N4        1.0  0.87127  0.12535  0.16717  1.0000
  C   C18       1.0  0.91114  0.09245  0.00620  1.0000
  H   H6        1.0  0.92389  0.07841  0.02276  1.0000
  C   C19       1.0  0.87401  0.13395  0.00769  1.0000
  H   H7        1.0  0.88391  0.16095  0.01717  1.0000
  C   C20       1.0  0.86937  0.74349  0.33097  1.0000
  C   C21       1.0  0.87549  0.76242  0.25104  1.0000
  C   C22       1.0  0.89302  0.79825  0.25278  1.0000
  C   C23       1.0  0.90499  0.81614  0.33425  1.0000
  N   N5        1.0  0.89752  0.81466  0.17387  1.0000
  C   C24       1.0  0.88693  0.79940  0.09319  1.0000
  C   C25       1.0  0.87000  0.76368  0.09102  1.0000
  N   N6        1.0  0.86532  0.74726  0.16994  1.0000
  C   C26       1.0  0.89463  0.82111  0.01360  1.0000
  H   H8        1.0  0.90770  0.84778  0.03174  1.0000
  C   C27       1.0  0.85641  0.74248  0.01038  1.0000
  H   H9        1.0  0.82953  0.72490  0.01932  1.0000
  H   H10       1.0  0.86927  0.72811  0.00017  1.0000
  C   C28       1.0  0.57646  0.13505  0.25844  1.0000
  C   C29       1.0  0.54620  0.13585  0.26076  1.0000
  H   H11       1.0  0.53396  0.13348  0.20166  1.0000
  H   H12       1.0  0.58510  0.13229  0.19784  1.0000
  H   H13       1.0  0.59543  0.13756  0.03586  1.0000
  H   H14       1.0  0.61838  0.18215  0.02250  1.0000
  H   H15       1.0  0.55850  0.16471  0.05361  1.0000
  H   H16       1.0  0.51868  0.13890  0.00392  1.0000
  C   C30       1.0  0.85610  0.44176  0.25888  1.0000
  C   C31       1.0  0.85528  0.41070  0.26132  1.0000
  H   H17       1.0  0.85779  0.40086  0.20232  1.0000
  H   H18       1.0  0.85903  0.45321  0.19829  1.0000
  H   H19       1.0  0.85255  0.45796  0.03631  1.0000
  H   H20       1.0  0.80802  0.43627  0.02203  1.0000
  H   H21       1.0  0.82571  0.39401  0.05399  1.0000
  H   H22       1.0  0.85149  0.37993  0.00449  1.0000
  C   C32       1.0  0.54930  0.41487  0.25802  1.0000
  C   C33       1.0  0.58034  0.44515  0.26036  1.0000
  H   H23       1.0  0.59022  0.45738  0.20126  1.0000
  H   H24       1.0  0.53791  0.40622  0.19741  1.0000
  H   H25       1.0  0.53282  0.39587  0.03544  1.0000
  H   H26       1.0  0.55449  0.37295  0.02208  1.0000
  H   H27       1.0  0.59689  0.43284  0.05322  1.0000
  H   H28       1.0  0.61087  0.47266  0.00356  1.0000
  C   C34       1.0  0.97544  0.01439  0.34270  1.0000
  C   C35       1.0  0.97608  0.96057  0.34634  1.0000
  C   C36       1.0  0.95856  0.97868  0.34227  1.0000
  C   C37       1.0  0.06625  0.03325  0.34959  1.0000
  C   C38       1.0  0.08501  0.06393  0.39704  1.0000
  C   C39       1.0  0.12050  0.08227  0.39404  1.0000
  C   C40       1.0  0.13888  0.07070  0.34370  1.0000
  C   C41       1.0  0.12026  0.03964  0.29817  1.0000
  C   C42       1.0  0.08481  0.02156  0.30029  1.0000
  C   C43       1.0  0.95696  0.03216  0.33885  1.0000
  C   C44       1.0  0.96872  0.06220  0.28856  1.0000
  C   C45       1.0  0.95075  0.07971  0.28569  1.0000
  C   C46       1.0  0.91984  0.06770  0.33173  1.0000
  C   C47       1.0  0.90808  0.03778  0.38233  1.0000
  C   C48       1.0  0.92627  0.02050  0.38601  1.0000
  C   C49       1.0  0.95845  0.92446  0.34424  1.0000
  C   C50       1.0  0.92946  0.90512  0.39743  1.0000
  C   C51       1.0  0.91214  0.86963  0.39490  1.0000
  C   C52       1.0  0.92293  0.85215  0.33818  1.0000
  C   C53       1.0  0.95200  0.87140  0.28542  1.0000
  C   C54       1.0  0.96943  0.90685  0.28846  1.0000
  H   H29       1.0  0.96078  0.10168  0.24999  1.0000
  H   H30       1.0  0.99047  0.07159  0.25217  1.0000
  H   H31       1.0  0.88583  0.02802  0.41667  1.0000
  H   H32       1.0  0.91691  0.99936  0.42497  1.0000
  H   H33       1.0  0.92087  0.91675  0.43964  1.0000
  H   H34       1.0  0.89114  0.85661  0.43389  1.0000
  H   H35       1.0  0.98999  0.91974  0.24793  1.0000
  H   H36       1.0  0.96092  0.85971  0.24447  1.0000
  H   H37       1.0  0.07266  0.99989  0.26345  1.0000
  H   H38       1.0  0.13238  0.02978  0.26259  1.0000
  H   H39       1.0  0.13283  0.10462  0.42798  1.0000
  H   H40       1.0  0.07299  0.07327  0.43506  1.0000
  H   H41       1.0  0.93288  0.96546  0.33562  1.0000
  C   C55       1.0  0.44679  0.25270  0.33377  1.0000
  C   C56       1.0  0.41117  0.23424  0.33615  1.0000
  C   C57       1.0  0.39286  0.19849  0.34127  1.0000
  C   C58       1.0  0.41155  0.18139  0.34381  1.0000
  C   C59       1.0  0.44717  0.19884  0.34043  1.0000
  C   C60       1.0  0.46411  0.23443  0.33762  1.0000
  C   C61       1.0  0.35661  0.18030  0.34068  1.0000
  C   C62       1.0  0.33783  0.19228  0.38768  1.0000
  C   C63       1.0  0.30234  0.17487  0.38559  1.0000
  C   C64       1.0  0.28396  0.14455  0.33668  1.0000
  C   C65       1.0  0.30262  0.13221  0.29092  1.0000
  C   C66       1.0  0.33811  0.14982  0.29229  1.0000
  C   C67       1.0  0.46545  0.28866  0.32611  1.0000
  C   C68       1.0  0.45931  0.30972  0.38291  1.0000
  C   C69       1.0  0.48114  0.34497  0.38335  1.0000
  C   C70       1.0  0.50970  0.36037  0.32670  1.0000
  C   C71       1.0  0.51458  0.33938  0.26638  1.0000
  C   C72       1.0  0.49283  0.30433  0.26577  1.0000
  C   C73       1.0  0.46619  0.18180  0.33617  1.0000
  C   C74       1.0  0.49287  0.19245  0.27393  1.0000
  C   C75       1.0  0.51423  0.17870  0.27421  1.0000
  C   C76       1.0  0.50957  0.15324  0.33572  1.0000
  C   C77       1.0  0.48194  0.14143  0.39534  1.0000
  C   C78       1.0  0.46053  0.15536  0.39535  1.0000
  H   H42       1.0  0.47678  0.35920  0.42827  1.0000
  H   H43       1.0  0.44020  0.29940  0.42878  1.0000
  H   H44       1.0  0.53533  0.34914  0.22571  1.0000
  H   H45       1.0  0.49815  0.29014  0.22307  1.0000
  H   H46       1.0  0.49777  0.21123  0.22906  1.0000
  H   H47       1.0  0.53428  0.18871  0.23110  1.0000
  H   H48       1.0  0.44179  0.14717  0.44217  1.0000
  H   H49       1.0  0.47766  0.12309  0.44098  1.0000
  H   H50       1.0  0.35030  0.14024  0.25592  1.0000
  H   H51       1.0  0.29050  0.10998  0.25640  1.0000
  H   H52       1.0  0.29000  0.18485  0.41966  1.0000
  H   H53       1.0  0.34983  0.21382  0.42507  1.0000
  H   H54       1.0  0.39840  0.24717  0.33023  1.0000
  H   H55       1.0  0.48993  0.24749  0.33880  1.0000
  H   H56       1.0  0.39904  0.15563  0.34674  1.0000
  C   C79       1.0  0.73860  0.19447  0.33411  1.0000
  C   C80       1.0  0.75708  0.17733  0.33567  1.0000
  C   C81       1.0  0.79285  0.19481  0.34026  1.0000
  C   C82       1.0  0.80992  0.23059  0.34336  1.0000
  C   C83       1.0  0.79242  0.24872  0.34088  1.0000
  C   C84       1.0  0.75683  0.23005  0.33843  1.0000
  C   C85       1.0  0.81110  0.17680  0.33833  1.0000
  C   C86       1.0  0.79926  0.14588  0.38444  1.0000
  C   C87       1.0  0.81671  0.12784  0.38091  1.0000
  C   C88       1.0  0.84691  0.13996  0.33135  1.0000
  C   C89       1.0  0.85911  0.17112  0.28651  1.0000
  C   C90       1.0  0.84148  0.18896  0.28932  1.0000
  C   C91       1.0  0.70264  0.17720  0.32649  1.0000
  C   C92       1.0  0.68156  0.15002  0.38330  1.0000
  C   C93       1.0  0.64633  0.13669  0.38385  1.0000
  C   C94       1.0  0.63094  0.14984  0.32711  1.0000
  C   C95       1.0  0.65196  0.17572  0.26684  1.0000
  C   C96       1.0  0.68700  0.18895  0.26614  1.0000
  C   C97       1.0  0.80941  0.28477  0.33672  1.0000
  C   C98       1.0  0.79873  0.30077  0.27445  1.0000
  C   C99       1.0  0.81244  0.33587  0.27470  1.0000
  C   C100      1.0  0.83780  0.35667  0.33641  1.0000
  C   C101      1.0  0.84964  0.34089  0.39610  1.0000
  C   C102      1.0  0.83578  0.30556  0.39605  1.0000
  H   H57       1.0  0.63207  0.11808  0.42869  1.0000
  H   H58       1.0  0.69187  0.14120  0.42912  1.0000
  H   H59       1.0  0.64223  0.18674  0.22621  1.0000
  H   H60       1.0  0.70121  0.20849  0.22356  1.0000
  H   H61       1.0  0.77997  0.28686  0.22955  1.0000
  H   H62       1.0  0.80239  0.34587  0.23162  1.0000
  H   H63       1.0  0.84401  0.29501  0.44280  1.0000
  H   H64       1.0  0.86796  0.35498  0.44178  1.0000
  H   H65       1.0  0.85096  0.21087  0.25354  1.0000
  H   H66       1.0  0.88126  0.18138  0.25159  1.0000
  H   H67       1.0  0.80680  0.10539  0.41433  1.0000
  H   H68       1.0  0.77780  0.13619  0.42221  1.0000
  H   H69       1.0  0.74417  0.15165  0.32924  1.0000
  H   H70       1.0  0.74375  0.24279  0.34006  1.0000
  H   H71       1.0  0.83569  0.24388  0.34592  1.0000
  C   C103      1.0  0.79657  0.54445  0.33339  1.0000
  C   C104      1.0  0.81375  0.58007  0.33508  1.0000
  C   C105      1.0  0.79631  0.59840  0.33967  1.0000
  C   C106      1.0  0.76052  0.57971  0.34254  1.0000
  C   C107      1.0  0.74235  0.54408  0.33986  1.0000
  C   C108      1.0  0.76100  0.52714  0.33747  1.0000
  C   C109      1.0  0.81436  0.63465  0.33818  1.0000
  C   C110      1.0  0.84527  0.65362  0.38446  1.0000
  C   C111      1.0  0.86330  0.68910  0.38164  1.0000
  C   C112      1.0  0.85118  0.70732  0.33272  1.0000
  C   C113      1.0  0.82005  0.68848  0.28764  1.0000
  C   C114      1.0  0.80223  0.65300  0.28966  1.0000
  C   C115      1.0  0.81385  0.52576  0.32606  1.0000
  C   C116      1.0  0.84090  0.53181  0.38330  1.0000
  C   C117      1.0  0.85427  0.50994  0.38402  1.0000
  C   C118      1.0  0.84120  0.48142  0.32722  1.0000
  C   C119      1.0  0.81543  0.47660  0.26659  1.0000
  C   C120      1.0  0.80217  0.49839  0.26571  1.0000
  C   C121      1.0  0.70630  0.52507  0.33571  1.0000
  C   C122      1.0  0.69025  0.49829  0.27373  1.0000
  C   C123      1.0  0.65514  0.47698  0.27399  1.0000
  C   C124      1.0  0.63436  0.48174  0.33532  1.0000
  C   C125      1.0  0.65019  0.50941  0.39480  1.0000
  C   C126      1.0  0.68553  0.53081  0.39473  1.0000
  H   H72       1.0  0.87282  0.51428  0.42906  1.0000
  H   H73       1.0  0.84971  0.55097  0.42901  1.0000
  H   H74       1.0  0.80442  0.45583  0.22600  1.0000
  H   H75       1.0  0.78270  0.49307  0.22291  1.0000
  H   H76       1.0  0.70413  0.49336  0.22893  1.0000
  H   H77       1.0  0.64509  0.45689  0.23100  1.0000
  H   H78       1.0  0.69611  0.54962  0.44137  1.0000
  H   H79       1.0  0.63613  0.51377  0.44027  1.0000
  H   H80       1.0  0.78034  0.64068  0.25381  1.0000
  H   H81       1.0  0.80976  0.70047  0.25328  1.0000
  H   H82       1.0  0.88571  0.70156  0.41527  1.0000
  H   H83       1.0  0.85492  0.64175  0.42198  1.0000
  H   H84       1.0  0.83944  0.59281  0.32886  1.0000
  H   H85       1.0  0.74824  0.50132  0.33905  1.0000
  H   H86       1.0  0.74726  0.59222  0.34515  1.0000
  C   C127      1.0  0.19422  0.10252  0.41806  1.0000
  C   C128      1.0  0.22966  0.12069  0.41610  1.0000
  H   H87       1.0  0.24228  0.12904  0.47525  1.0000
  H   H88       1.0  0.18248  0.09814  0.47866  1.0000
  H   H89       1.0  0.17491  0.06129  0.64695  1.0000
  H   H90       1.0  0.17513  0.10023  0.64046  1.0000
  H   H91       1.0  0.23384  0.10547  0.62119  1.0000
  C   C129      1.0  0.88884  0.09162  0.40838  1.0000
  C   C130      1.0  0.87086  0.10909  0.40816  1.0000
  H   H92       1.0  0.86270  0.11314  0.46788  1.0000
  H   H93       1.0  0.89327  0.08394  0.46841  1.0000
  H   H94       1.0  0.92886  0.11513  0.63651  1.0000
  H   H95       1.0  0.88967  0.07663  0.63014  1.0000
  H   H96       1.0  0.88512  0.13069  0.61393  1.0000
  H   H97       1.0  0.84672  0.12161  0.66531  1.0000
  C   C131      1.0  0.89891  0.79716  0.41341  1.0000
  C   C132      1.0  0.88169  0.76172  0.41169  1.0000
  H   H98       1.0  0.87787  0.74920  0.47092  1.0000
  H   H99       1.0  0.90754  0.80910  0.47338  1.0000
  H   H100      1.0  0.87139  0.81534  0.64561  1.0000
  H   H101      1.0  0.91088  0.81689  0.63536  1.0000
  H   H102      1.0  0.85950  0.75721  0.61718  1.0000
  C   C133      1.0  0.53451  0.14310  0.34062  1.0000
  C   C134      1.0  0.55256  0.14605  0.42043  1.0000
  C   C135      1.0  0.58314  0.14513  0.41801  1.0000
  C   C136      1.0  0.59639  0.14129  0.33594  1.0000
  N   N7        1.0  0.59997  0.14993  0.49632  1.0000
  C   C137      1.0  0.58950  0.15479  0.57698  1.0000
  C   C138      1.0  0.55908  0.15580  0.57948  1.0000
  N   N8        1.0  0.54259  0.15178  0.50096  1.0000
  C   C139      1.0  0.61021  0.15806  0.65609  1.0000
  H   H103      1.0  0.63262  0.15679  0.63766  1.0000
  C   C140      1.0  0.54359  0.16091  0.66026  1.0000
  H   H104      1.0  0.54080  0.18303  0.65118  1.0000
  C   C141      1.0  0.84791  0.39173  0.34117  1.0000
  C   C142      1.0  0.84482  0.40680  0.42088  1.0000
  C   C143      1.0  0.84573  0.43830  0.41832  1.0000
  C   C144      1.0  0.84973  0.45543  0.33622  1.0000
  N   N9        1.0  0.84074  0.45026  0.49650  1.0000
  C   C145      1.0  0.83574  0.43490  0.57715  1.0000
  C   C146      1.0  0.83476  0.40350  0.57980  1.0000
  N   N10       1.0  0.83895  0.39107  0.50141  1.0000
  C   C147      1.0  0.83220  0.45225  0.65610  1.0000
  H   H105      1.0  0.83348  0.47594  0.63755  1.0000
  C   C148      1.0  0.82954  0.38287  0.66061  1.0000
  H   H106      1.0  0.80741  0.35800  0.65144  1.0000
  C   C149      1.0  0.59927  0.45684  0.34024  1.0000
  C   C150      1.0  0.58418  0.43880  0.42004  1.0000
  C   C151      1.0  0.55270  0.40819  0.41760  1.0000
  C   C152      1.0  0.53563  0.39494  0.33552  1.0000
  N   N11       1.0  0.54068  0.39136  0.49591  1.0000
  C   C153      1.0  0.55600  0.40183  0.57657  1.0000
  C   C154      1.0  0.58741  0.43227  0.57909  1.0000
  N   N12       1.0  0.59987  0.44877  0.50058  1.0000
  C   C155      1.0  0.53856  0.38111  0.65566  1.0000
  H   H107      1.0  0.51489  0.35868  0.63721  1.0000
  C   C156      1.0  0.60800  0.44777  0.65988  1.0000
  H   H108      1.0  0.63291  0.45058  0.65081  1.0000
