data_image0
_chemical_formula_structural       C5H2C3H2C2H2CNCNCNC18H12CNCNCNC18H12C3HOHC3HOHC2HOH
_chemical_formula_sum              "C60 H36 N6 O3"
_cell_length_a       29.4589
_cell_length_b       29.4588
_cell_length_c       14.9528
_cell_angle_alpha    90
_cell_angle_beta     90
_cell_angle_gamma    120

_space_group_name_H-M_alt    "P 1"
_space_group_IT_number       1

loop_
  _space_group_symop_operation_xyz
  'x, y, z'

loop_
  _atom_site_type_symbol
  _atom_site_label
  _atom_site_symmetry_multiplicity
  _atom_site_fract_x
  _atom_site_fract_y
  _atom_site_fract_z
  _atom_site_occupancy
  C   C1        1.0  0.03027  0.51553  0.25692  1.0000
  C   C2        1.0  0.02961  0.51520  0.42083  1.0000
  C   C3        1.0  0.53019  0.47375  0.33662  1.0000
  C   C4        1.0  0.51597  0.48798  0.25579  1.0000
  C   C5        1.0  0.48842  0.51553  0.25693  1.0000
  H   H1        1.0  0.47854  0.52540  0.19728  1.0000
  H   H2        1.0  0.52554  0.47840  0.19561  1.0000
  C   C6        1.0  0.53020  0.05723  0.33662  1.0000
  C   C7        1.0  0.51597  0.02878  0.25579  1.0000
  C   C8        1.0  0.48842  0.97368  0.25692  1.0000
  H   H3        1.0  0.47855  0.95393  0.19727  1.0000
  H   H4        1.0  0.52555  0.04794  0.19561  1.0000
  C   C9        1.0  0.94672  0.47375  0.33662  1.0000
  C   C10       1.0  0.97516  0.48798  0.25579  1.0000
  H   H5        1.0  0.05001  0.52540  0.19727  1.0000
  H   H6        1.0  0.95601  0.47840  0.19561  1.0000
  C   C11       1.0  0.36278  0.72240  0.33471  1.0000
  N   N1        1.0  0.38817  0.69448  0.33473  1.0000
  C   C12       1.0  0.36278  0.64117  0.33471  1.0000
  N   N2        1.0  0.30947  0.61578  0.33473  1.0000
  C   C13       1.0  0.28154  0.64117  0.33471  1.0000
  N   N3        1.0  0.30947  0.69448  0.33473  1.0000
  C   C14       1.0  0.39078  0.61317  0.33491  1.0000
  C   C15       1.0  0.44638  0.63989  0.33516  1.0000
  C   C16       1.0  0.47405  0.61239  0.33586  1.0000
  C   C17       1.0  0.44684  0.55711  0.33626  1.0000
  C   C18       1.0  0.39156  0.52990  0.33586  1.0000
  C   C19       1.0  0.36406  0.55757  0.33516  1.0000
  C   C20       1.0  0.39078  0.77840  0.33491  1.0000
  C   C21       1.0  0.44638  0.80727  0.33516  1.0000
  C   C22       1.0  0.47405  0.86245  0.33585  1.0000
  C   C23       1.0  0.44683  0.89051  0.33625  1.0000
  C   C24       1.0  0.39156  0.86245  0.33586  1.0000
  C   C25       1.0  0.36405  0.80727  0.33516  1.0000
  C   C26       1.0  0.22554  0.61317  0.33491  1.0000
  C   C27       1.0  0.19667  0.63989  0.33516  1.0000
  C   C28       1.0  0.14150  0.61239  0.33585  1.0000
  C   C29       1.0  0.11343  0.55711  0.33624  1.0000
  C   C30       1.0  0.14150  0.52990  0.33585  1.0000
  C   C31       1.0  0.19667  0.55757  0.33516  1.0000
  H   H7        1.0  0.51418  0.88196  0.33654  1.0000
  H   H8        1.0  0.46766  0.78849  0.33516  1.0000
  H   H9        1.0  0.37093  0.88196  0.33654  1.0000
  H   H10       1.0  0.32398  0.78849  0.33516  1.0000
  H   H11       1.0  0.21546  0.67997  0.33516  1.0000
  H   H12       1.0  0.12199  0.63301  0.33654  1.0000
  H   H13       1.0  0.21546  0.53629  0.33516  1.0000
  H   H14       1.0  0.12199  0.48977  0.33654  1.0000
  H   H15       1.0  0.32398  0.53629  0.33516  1.0000
  H   H16       1.0  0.37094  0.48977  0.33654  1.0000
  H   H17       1.0  0.51418  0.63301  0.33654  1.0000
  H   H18       1.0  0.46766  0.67997  0.33515  1.0000
  C   C32       1.0  0.64196  0.28076  0.33615  1.0000
  N   N4        1.0  0.61657  0.30868  0.33615  1.0000
  C   C33       1.0  0.64196  0.36199  0.33615  1.0000
  N   N5        1.0  0.69527  0.38738  0.33614  1.0000
  C   C34       1.0  0.72319  0.36199  0.33615  1.0000
  N   N6        1.0  0.69527  0.30868  0.33615  1.0000
  C   C35       1.0  0.61396  0.38999  0.33603  1.0000
  C   C36       1.0  0.55836  0.36327  0.33598  1.0000
  C   C37       1.0  0.53069  0.39077  0.33592  1.0000
  C   C38       1.0  0.55790  0.44605  0.33581  1.0000
  C   C39       1.0  0.61317  0.47326  0.33592  1.0000
  C   C40       1.0  0.64068  0.44559  0.33598  1.0000
  C   C41       1.0  0.61396  0.22476  0.33603  1.0000
  C   C42       1.0  0.55836  0.19588  0.33599  1.0000
  C   C43       1.0  0.53069  0.14071  0.33592  1.0000
  C   C44       1.0  0.55790  0.11264  0.33582  1.0000
  C   C45       1.0  0.61318  0.14071  0.33592  1.0000
  C   C46       1.0  0.64068  0.19588  0.33599  1.0000
  C   C47       1.0  0.77919  0.38999  0.33603  1.0000
  C   C48       1.0  0.80806  0.36327  0.33599  1.0000
  C   C49       1.0  0.86324  0.39077  0.33592  1.0000
  C   C50       1.0  0.89130  0.44605  0.33582  1.0000
  C   C51       1.0  0.86324  0.47326  0.33592  1.0000
  C   C52       1.0  0.80806  0.44559  0.33599  1.0000
  H   H19       1.0  0.49056  0.12120  0.33609  1.0000
  H   H20       1.0  0.53707  0.21467  0.33609  1.0000
  H   H21       1.0  0.63380  0.12120  0.33609  1.0000
  H   H22       1.0  0.68076  0.21467  0.33610  1.0000
  H   H23       1.0  0.78927  0.32319  0.33609  1.0000
  H   H24       1.0  0.88275  0.37014  0.33609  1.0000
  H   H25       1.0  0.78927  0.46687  0.33609  1.0000
  H   H26       1.0  0.88274  0.51339  0.33609  1.0000
  H   H27       1.0  0.68075  0.46687  0.33609  1.0000
  H   H28       1.0  0.63380  0.51339  0.33609  1.0000
  H   H29       1.0  0.49055  0.37014  0.33609  1.0000
  H   H30       1.0  0.53707  0.32319  0.33609  1.0000
  C   C53       1.0  0.47457  0.52938  0.33881  1.0000
  C   C54       1.0  0.48875  0.51519  0.42084  1.0000
  C   C55       1.0  0.51640  0.48755  0.41844  1.0000
  H   H31       1.0  0.52661  0.47734  0.47745  1.0000
  O   O1        1.0  0.47803  0.52592  0.50504  1.0000
  H   H32       1.0  0.45883  0.54511  0.50392  1.0000
  C   C56       1.0  0.47457  0.94597  0.33881  1.0000
  C   C57       1.0  0.48875  0.97435  0.42084  1.0000
  C   C58       1.0  0.51640  0.02964  0.41844  1.0000
  H   H33       1.0  0.52661  0.05006  0.47745  1.0000
  O   O2        1.0  0.47802  0.95290  0.50504  1.0000
  H   H34       1.0  0.45885  0.91451  0.50391  1.0000
  C   C59       1.0  0.05797  0.52938  0.33880  1.0000
  C   C60       1.0  0.97430  0.48755  0.41844  1.0000
  H   H35       1.0  0.95389  0.47734  0.47746  1.0000
  O   O3        1.0  0.05105  0.52592  0.50503  1.0000
  H   H36       1.0  0.08944  0.54512  0.50391  1.0000
