data_image0
_chemical_formula_structural       C2HC2HN2CNCNH2CHCNCNH2CHC4H2C4H2N3C2HCHNC2HCHC2HC2HN2CNCNH2CHCNCNH2CHC4H2C4H2N3C2HCHNC2HCHC2HC2HN2CNCNH2CHCNCNH2CHC4H2C4H2N3C2HCHNC2HCHC2HC2HN2CNCNH2CHCNCNH2CHC4H2C4H2N3C2HCHNC2HCH
_chemical_formula_sum              "C96 H64 N40"
_cell_length_a       31.2268
_cell_length_b       31.2268
_cell_length_c       14.8092
_cell_angle_alpha    90
_cell_angle_beta     90
_cell_angle_gamma    90

_space_group_name_H-M_alt    "P 1"
_space_group_IT_number       1

loop_
  _space_group_symop_operation_xyz
  'x, y, z'

loop_
  _atom_site_type_symbol
  _atom_site_label
  _atom_site_symmetry_multiplicity
  _atom_site_fract_x
  _atom_site_fract_y
  _atom_site_fract_z
  _atom_site_occupancy
  C   C1        1.0  0.01761  0.06311  0.32898  1.0000
  C   C2        1.0  0.04905  0.09573  0.32897  1.0000
  H   H1        1.0  0.48689  0.07338  0.32841  1.0000
  C   C3        1.0  0.47236  0.40840  0.33003  1.0000
  C   C4        1.0  0.50409  0.44075  0.33026  1.0000
  H   H2        1.0  0.03481  0.43029  0.33040  1.0000
  N   N1        1.0  0.48015  0.36568  0.32994  1.0000
  N   N2        1.0  0.04083  0.13843  0.32839  1.0000
  C   C5        1.0  0.00512  0.20687  0.32738  1.0000
  N   N3        1.0  0.47434  0.27672  0.32656  1.0000
  C   C6        1.0  0.96814  0.23353  0.32512  1.0000
  N   N4        1.0  0.92695  0.21990  0.32135  1.0000
  H   H3        1.0  0.91939  0.18983  0.31946  1.0000
  H   H4        1.0  0.90353  0.24046  0.31967  1.0000
  C   C7        1.0  0.00431  0.16175  0.32694  1.0000
  H   H5        1.0  0.97576  0.14602  0.32545  1.0000
  C   C8        1.0  0.30600  0.00775  0.32811  1.0000
  N   N5        1.0  0.23615  0.53853  0.32735  1.0000
  C   C9        1.0  0.27934  0.04474  0.32596  1.0000
  N   N6        1.0  0.29297  0.08593  0.32231  1.0000
  H   H6        1.0  0.32304  0.09349  0.32052  1.0000
  H   H7        1.0  0.27241  0.10935  0.32073  1.0000
  C   C10       1.0  0.35112  0.00856  0.32763  1.0000
  H   H8        1.0  0.36685  0.03711  0.32616  1.0000
  C   C11       1.0  0.02732  0.01834  0.32985  1.0000
  C   C12       1.0  0.09237  0.08380  0.32962  1.0000
  C   C13       1.0  0.10447  0.04050  0.33033  1.0000
  C   C14       1.0  0.07211  0.00878  0.33060  1.0000
  H   H9        1.0  0.08257  0.47806  0.33117  1.0000
  H   H10       1.0  0.11554  0.10709  0.32947  1.0000
  C   C15       1.0  0.49453  0.48555  0.32986  1.0000
  C   C16       1.0  0.44976  0.49526  0.32935  1.0000
  C   C17       1.0  0.41714  0.46382  0.32924  1.0000
  C   C18       1.0  0.42907  0.42050  0.32957  1.0000
  H   H11       1.0  0.43948  0.02598  0.32932  1.0000
  H   H12       1.0  0.40578  0.39733  0.32940  1.0000
  N   N7        1.0  0.37444  0.47204  0.32886  1.0000
  N   N8        1.0  0.14719  0.03272  0.33042  1.0000
  N   N9        1.0  0.04396  0.22675  0.33049  1.0000
  C   C19       1.0  0.54947  0.26983  0.33168  1.0000
  C   C20       1.0  0.51309  0.29648  0.32982  1.0000
  H   H13       1.0  0.57977  0.28215  0.33412  1.0000
  C   C21       1.0  0.51597  0.34139  0.33092  1.0000
  H   H14       1.0  0.54541  0.35570  0.33275  1.0000
  N   N10       1.0  0.28612  0.96891  0.33113  1.0000
  C   C22       1.0  0.24304  0.46340  0.33231  1.0000
  C   C23       1.0  0.21639  0.49978  0.33051  1.0000
  H   H15       1.0  0.23072  0.43310  0.33466  1.0000
  C   C24       1.0  0.17148  0.49690  0.33153  1.0000
  H   H16       1.0  0.15717  0.46746  0.33328  1.0000
  C   C25       1.0  0.01761  0.56311  0.32898  1.0000
  C   C26       1.0  0.04905  0.59573  0.32897  1.0000
  H   H17       1.0  0.48689  0.57338  0.32841  1.0000
  C   C27       1.0  0.47236  0.90840  0.33003  1.0000
  C   C28       1.0  0.50409  0.94075  0.33026  1.0000
  H   H18       1.0  0.03481  0.93029  0.33040  1.0000
  N   N11       1.0  0.48015  0.86568  0.32994  1.0000
  N   N12       1.0  0.04083  0.63843  0.32839  1.0000
  C   C29       1.0  0.00512  0.70687  0.32738  1.0000
  N   N13       1.0  0.47434  0.77672  0.32656  1.0000
  C   C30       1.0  0.96814  0.73353  0.32512  1.0000
  N   N14       1.0  0.92695  0.71990  0.32135  1.0000
  H   H19       1.0  0.91939  0.68983  0.31946  1.0000
  H   H20       1.0  0.90353  0.74046  0.31967  1.0000
  C   C31       1.0  0.00431  0.66175  0.32694  1.0000
  H   H21       1.0  0.97576  0.64601  0.32545  1.0000
  C   C32       1.0  0.30600  0.50775  0.32811  1.0000
  N   N15       1.0  0.23615  0.03853  0.32735  1.0000
  C   C33       1.0  0.27934  0.54474  0.32596  1.0000
  N   N16       1.0  0.29297  0.58593  0.32231  1.0000
  H   H22       1.0  0.32304  0.59350  0.32052  1.0000
  H   H23       1.0  0.27241  0.60935  0.32073  1.0000
  C   C34       1.0  0.35112  0.50856  0.32763  1.0000
  H   H24       1.0  0.36685  0.53711  0.32616  1.0000
  C   C35       1.0  0.02732  0.51834  0.32985  1.0000
  C   C36       1.0  0.09237  0.58380  0.32962  1.0000
  C   C37       1.0  0.10447  0.54051  0.33033  1.0000
  C   C38       1.0  0.07211  0.50878  0.33060  1.0000
  H   H25       1.0  0.08257  0.97806  0.33117  1.0000
  H   H26       1.0  0.11554  0.60709  0.32947  1.0000
  C   C39       1.0  0.49453  0.98555  0.32986  1.0000
  C   C40       1.0  0.44976  0.99526  0.32935  1.0000
  C   C41       1.0  0.41714  0.96382  0.32924  1.0000
  C   C42       1.0  0.42907  0.92050  0.32957  1.0000
  H   H27       1.0  0.43948  0.52598  0.32932  1.0000
  H   H28       1.0  0.40578  0.89733  0.32940  1.0000
  N   N17       1.0  0.37444  0.97204  0.32886  1.0000
  N   N18       1.0  0.14719  0.53272  0.33042  1.0000
  N   N19       1.0  0.04396  0.72675  0.33049  1.0000
  C   C43       1.0  0.54947  0.76983  0.33168  1.0000
  C   C44       1.0  0.51309  0.79648  0.32982  1.0000
  H   H29       1.0  0.57977  0.78215  0.33412  1.0000
  C   C45       1.0  0.51597  0.84139  0.33092  1.0000
  H   H30       1.0  0.54541  0.85570  0.33275  1.0000
  N   N20       1.0  0.28612  0.46891  0.33113  1.0000
  C   C46       1.0  0.24304  0.96340  0.33231  1.0000
  C   C47       1.0  0.21639  0.99978  0.33051  1.0000
  H   H31       1.0  0.23072  0.93310  0.33466  1.0000
  C   C48       1.0  0.17148  0.99690  0.33153  1.0000
  H   H32       1.0  0.15717  0.96746  0.33328  1.0000
  C   C49       1.0  0.51761  0.06311  0.32898  1.0000
  C   C50       1.0  0.54905  0.09573  0.32897  1.0000
  H   H33       1.0  0.98689  0.07338  0.32841  1.0000
  C   C51       1.0  0.97236  0.40840  0.33003  1.0000
  C   C52       1.0  0.00409  0.44075  0.33026  1.0000
  H   H34       1.0  0.53481  0.43029  0.33040  1.0000
  N   N21       1.0  0.98015  0.36568  0.32994  1.0000
  N   N22       1.0  0.54083  0.13843  0.32839  1.0000
  C   C53       1.0  0.50512  0.20687  0.32738  1.0000
  N   N23       1.0  0.97434  0.27672  0.32656  1.0000
  C   C54       1.0  0.46814  0.23353  0.32512  1.0000
  N   N24       1.0  0.42695  0.21990  0.32135  1.0000
  H   H35       1.0  0.41939  0.18983  0.31946  1.0000
  H   H36       1.0  0.40353  0.24046  0.31967  1.0000
  C   C55       1.0  0.50431  0.16175  0.32694  1.0000
  H   H37       1.0  0.47576  0.14602  0.32545  1.0000
  C   C56       1.0  0.80600  0.00775  0.32811  1.0000
  N   N25       1.0  0.73615  0.53853  0.32735  1.0000
  C   C57       1.0  0.77934  0.04474  0.32596  1.0000
  N   N26       1.0  0.79297  0.08593  0.32231  1.0000
  H   H38       1.0  0.82304  0.09349  0.32052  1.0000
  H   H39       1.0  0.77241  0.10935  0.32073  1.0000
  C   C58       1.0  0.85112  0.00856  0.32763  1.0000
  H   H40       1.0  0.86685  0.03711  0.32616  1.0000
  C   C59       1.0  0.52732  0.01834  0.32985  1.0000
  C   C60       1.0  0.59237  0.08380  0.32962  1.0000
  C   C61       1.0  0.60447  0.04050  0.33033  1.0000
  C   C62       1.0  0.57211  0.00878  0.33060  1.0000
  H   H41       1.0  0.58257  0.47806  0.33117  1.0000
  H   H42       1.0  0.61554  0.10709  0.32947  1.0000
  C   C63       1.0  0.99453  0.48555  0.32986  1.0000
  C   C64       1.0  0.94976  0.49526  0.32935  1.0000
  C   C65       1.0  0.91714  0.46382  0.32924  1.0000
  C   C66       1.0  0.92907  0.42050  0.32957  1.0000
  H   H43       1.0  0.93949  0.02598  0.32932  1.0000
  H   H44       1.0  0.90578  0.39733  0.32940  1.0000
  N   N27       1.0  0.87444  0.47204  0.32886  1.0000
  N   N28       1.0  0.64719  0.03272  0.33042  1.0000
  N   N29       1.0  0.54396  0.22675  0.33049  1.0000
  C   C67       1.0  0.04947  0.26983  0.33168  1.0000
  C   C68       1.0  0.01309  0.29648  0.32982  1.0000
  H   H45       1.0  0.07977  0.28215  0.33412  1.0000
  C   C69       1.0  0.01597  0.34139  0.33092  1.0000
  H   H46       1.0  0.04541  0.35570  0.33275  1.0000
  N   N30       1.0  0.78612  0.96891  0.33113  1.0000
  C   C70       1.0  0.74304  0.46340  0.33231  1.0000
  C   C71       1.0  0.71639  0.49978  0.33051  1.0000
  H   H47       1.0  0.73072  0.43310  0.33466  1.0000
  C   C72       1.0  0.67148  0.49690  0.33153  1.0000
  H   H48       1.0  0.65717  0.46746  0.33328  1.0000
  C   C73       1.0  0.51761  0.56311  0.32898  1.0000
  C   C74       1.0  0.54905  0.59573  0.32897  1.0000
  H   H49       1.0  0.98689  0.57338  0.32841  1.0000
  C   C75       1.0  0.97236  0.90840  0.33003  1.0000
  C   C76       1.0  0.00409  0.94075  0.33026  1.0000
  H   H50       1.0  0.53481  0.93029  0.33040  1.0000
  N   N31       1.0  0.98015  0.86568  0.32994  1.0000
  N   N32       1.0  0.54083  0.63843  0.32839  1.0000
  C   C77       1.0  0.50512  0.70687  0.32738  1.0000
  N   N33       1.0  0.97434  0.77672  0.32656  1.0000
  C   C78       1.0  0.46814  0.73353  0.32512  1.0000
  N   N34       1.0  0.42695  0.71990  0.32135  1.0000
  H   H51       1.0  0.41939  0.68983  0.31946  1.0000
  H   H52       1.0  0.40353  0.74046  0.31967  1.0000
  C   C79       1.0  0.50431  0.66175  0.32694  1.0000
  H   H53       1.0  0.47576  0.64601  0.32545  1.0000
  C   C80       1.0  0.80600  0.50775  0.32811  1.0000
  N   N35       1.0  0.73615  0.03853  0.32735  1.0000
  C   C81       1.0  0.77934  0.54474  0.32596  1.0000
  N   N36       1.0  0.79297  0.58593  0.32231  1.0000
  H   H54       1.0  0.82304  0.59350  0.32052  1.0000
  H   H55       1.0  0.77241  0.60935  0.32073  1.0000
  C   C82       1.0  0.85112  0.50856  0.32763  1.0000
  H   H56       1.0  0.86685  0.53711  0.32616  1.0000
  C   C83       1.0  0.52732  0.51834  0.32985  1.0000
  C   C84       1.0  0.59237  0.58380  0.32962  1.0000
  C   C85       1.0  0.60447  0.54051  0.33033  1.0000
  C   C86       1.0  0.57211  0.50878  0.33060  1.0000
  H   H57       1.0  0.58257  0.97806  0.33117  1.0000
  H   H58       1.0  0.61554  0.60709  0.32947  1.0000
  C   C87       1.0  0.99453  0.98555  0.32986  1.0000
  C   C88       1.0  0.94976  0.99526  0.32935  1.0000
  C   C89       1.0  0.91714  0.96382  0.32924  1.0000
  C   C90       1.0  0.92907  0.92050  0.32957  1.0000
  H   H59       1.0  0.93949  0.52598  0.32932  1.0000
  H   H60       1.0  0.90578  0.89733  0.32940  1.0000
  N   N37       1.0  0.87444  0.97204  0.32886  1.0000
  N   N38       1.0  0.64719  0.53272  0.33042  1.0000
  N   N39       1.0  0.54396  0.72675  0.33049  1.0000
  C   C91       1.0  0.04947  0.76983  0.33168  1.0000
  C   C92       1.0  0.01309  0.79648  0.32982  1.0000
  H   H61       1.0  0.07977  0.78215  0.33412  1.0000
  C   C93       1.0  0.01597  0.84139  0.33092  1.0000
  H   H62       1.0  0.04541  0.85570  0.33275  1.0000
  N   N40       1.0  0.78612  0.46891  0.33113  1.0000
  C   C94       1.0  0.74304  0.96340  0.33231  1.0000
  C   C95       1.0  0.71639  0.99978  0.33051  1.0000
  H   H63       1.0  0.73072  0.93310  0.33466  1.0000
  C   C96       1.0  0.67148  0.99690  0.33153  1.0000
  H   H64       1.0  0.65717  0.96746  0.33328  1.0000
