data_image0
_chemical_formula_structural       C3H2C2HC2O2C3HCH3NHC3HCH3NHC3HC4H2C2O2CN3HCN3HC3H2C2HC2O2C3HCH3NHC3HCH3NHC3HC4H2C2O2CN3HCN3HC3H2C2HC2O2C3HCH3NHC3HCH3NHC3HC4H2C2O2CN3HCN3HC3H2C2HC2O2C3HCH3NHC3HCH3NHC3HC4H2C2O2CN3HCN3H
_chemical_formula_sum              "C104 H72 O16 N32"
_cell_length_a       30.205
_cell_length_b       30.205
_cell_length_c       14.9941
_cell_angle_alpha    90
_cell_angle_beta     90
_cell_angle_gamma    90

_space_group_name_H-M_alt    "P 1"
_space_group_IT_number       1

loop_
  _space_group_symop_operation_xyz
  'x, y, z'

loop_
  _atom_site_type_symbol
  _atom_site_label
  _atom_site_symmetry_multiplicity
  _atom_site_fract_x
  _atom_site_fract_y
  _atom_site_fract_z
  _atom_site_occupancy
  C   C1        1.0  0.48903  0.44076  0.27259  1.0000
  C   C2        1.0  0.46003  0.40997  0.23176  1.0000
  C   C3        1.0  0.41737  0.42577  0.21060  1.0000
  H   H1        1.0  0.02087  0.43106  0.27838  1.0000
  H   H2        1.0  0.39556  0.40415  0.18205  1.0000
  C   C4        1.0  0.02755  0.09114  0.39489  1.0000
  C   C5        1.0  0.99880  0.06135  0.34971  1.0000
  H   H3        1.0  0.47071  0.07418  0.32293  1.0000
  C   C6        1.0  0.02267  0.13804  0.39626  1.0000
  C   C7        1.0  0.46969  0.36410  0.21851  1.0000
  O   O1        1.0  0.04613  0.16056  0.45891  1.0000
  O   O2        1.0  0.43967  0.33952  0.17263  1.0000
  C   C8        1.0  0.04260  0.23103  0.33198  1.0000
  C   C9        1.0  0.04546  0.27633  0.30862  1.0000
  C   C10       1.0  0.00742  0.29716  0.27130  1.0000
  H   H4        1.0  0.07046  0.21538  0.35394  1.0000
  C   C11       1.0  0.08805  0.30027  0.32173  1.0000
  H   H5        1.0  0.11449  0.27874  0.34598  1.0000
  H   H6        1.0  0.08368  0.32675  0.37043  1.0000
  H   H7        1.0  0.59894  0.31452  0.25852  1.0000
  N   N1        1.0  0.00478  0.34180  0.25481  1.0000
  H   H8        1.0  0.02858  0.35963  0.27834  1.0000
  C   C12       1.0  0.25505  0.99347  0.22195  1.0000
  C   C13       1.0  0.20887  0.99124  0.23619  1.0000
  C   C14       1.0  0.19236  0.00112  0.32302  1.0000
  H   H9        1.0  0.26663  0.98966  0.15863  1.0000
  C   C15       1.0  0.17947  0.98067  0.15925  1.0000
  H   H10       1.0  0.19771  0.97498  0.09740  1.0000
  H   H11       1.0  0.15661  0.00805  0.14760  1.0000
  H   H12       1.0  0.16058  0.45069  0.17353  1.0000
  N   N2        1.0  0.14809  0.00104  0.34289  1.0000
  H   H13       1.0  0.12877  0.99025  0.29606  1.0000
  C   C16       1.0  0.47675  0.48452  0.29920  1.0000
  C   C17       1.0  0.40090  0.46680  0.24161  1.0000
  C   C18       1.0  0.43109  0.49502  0.28649  1.0000
  H   H14       1.0  0.41905  0.02444  0.30897  1.0000
  C   C19       1.0  0.00767  0.01515  0.33931  1.0000
  C   C20       1.0  0.05086  0.00203  0.36698  1.0000
  C   C21       1.0  0.08156  0.03056  0.40879  1.0000
  C   C22       1.0  0.06704  0.07342  0.43127  1.0000
  H   H15       1.0  0.06099  0.47015  0.36066  1.0000
  H   H16       1.0  0.08982  0.09463  0.45821  1.0000
  C   C23       1.0  0.12746  0.02036  0.41439  1.0000
  C   C24       1.0  0.35496  0.47595  0.23060  1.0000
  O   O3        1.0  0.33349  0.45108  0.16882  1.0000
  O   O4        1.0  0.15235  0.04316  0.47413  1.0000
  C   C25       1.0  0.00303  0.20658  0.31953  1.0000
  N   N3        1.0  0.97151  0.27057  0.25822  1.0000
  N   N4        1.0  0.96935  0.22870  0.27946  1.0000
  N   N5        1.0  0.99705  0.16279  0.34007  1.0000
  H   H17       1.0  0.97288  0.14799  0.30941  1.0000
  C   C26       1.0  0.28479  0.00289  0.29233  1.0000
  N   N6        1.0  0.22296  0.01256  0.38564  1.0000
  N   N7        1.0  0.26568  0.01320  0.37179  1.0000
  N   N8        1.0  0.33009  0.00049  0.28893  1.0000
  H   H18       1.0  0.34545  0.01136  0.34171  1.0000
  C   C27       1.0  0.48903  0.94076  0.27259  1.0000
  C   C28       1.0  0.46003  0.90997  0.23176  1.0000
  C   C29       1.0  0.41737  0.92576  0.21060  1.0000
  H   H19       1.0  0.02087  0.93106  0.27838  1.0000
  H   H20       1.0  0.39556  0.90416  0.18205  1.0000
  C   C30       1.0  0.02755  0.59114  0.39489  1.0000
  C   C31       1.0  0.99880  0.56135  0.34971  1.0000
  H   H21       1.0  0.47071  0.57418  0.32293  1.0000
  C   C32       1.0  0.02267  0.63804  0.39626  1.0000
  C   C33       1.0  0.46969  0.86410  0.21851  1.0000
  O   O5        1.0  0.04613  0.66056  0.45891  1.0000
  O   O6        1.0  0.43967  0.83952  0.17263  1.0000
  C   C34       1.0  0.04260  0.73103  0.33198  1.0000
  C   C35       1.0  0.04546  0.77634  0.30862  1.0000
  C   C36       1.0  0.00742  0.79715  0.27130  1.0000
  H   H22       1.0  0.07046  0.71538  0.35394  1.0000
  C   C37       1.0  0.08805  0.80027  0.32173  1.0000
  H   H23       1.0  0.11449  0.77874  0.34598  1.0000
  H   H24       1.0  0.08368  0.82675  0.37043  1.0000
  H   H25       1.0  0.59894  0.81451  0.25852  1.0000
  N   N9        1.0  0.00478  0.84180  0.25481  1.0000
  H   H26       1.0  0.02858  0.85963  0.27834  1.0000
  C   C38       1.0  0.25505  0.49347  0.22195  1.0000
  C   C39       1.0  0.20887  0.49124  0.23619  1.0000
  C   C40       1.0  0.19236  0.50112  0.32302  1.0000
  H   H27       1.0  0.26663  0.48966  0.15863  1.0000
  C   C41       1.0  0.17947  0.48067  0.15925  1.0000
  H   H28       1.0  0.19771  0.47498  0.09740  1.0000
  H   H29       1.0  0.15661  0.50805  0.14760  1.0000
  H   H30       1.0  0.16058  0.95069  0.17353  1.0000
  N   N10       1.0  0.14809  0.50104  0.34289  1.0000
  H   H31       1.0  0.12877  0.49025  0.29606  1.0000
  C   C42       1.0  0.47675  0.98452  0.29920  1.0000
  C   C43       1.0  0.40090  0.96680  0.24161  1.0000
  C   C44       1.0  0.43109  0.99503  0.28649  1.0000
  H   H32       1.0  0.41905  0.52444  0.30897  1.0000
  C   C45       1.0  0.00767  0.51515  0.33931  1.0000
  C   C46       1.0  0.05086  0.50203  0.36698  1.0000
  C   C47       1.0  0.08156  0.53056  0.40879  1.0000
  C   C48       1.0  0.06704  0.57342  0.43127  1.0000
  H   H33       1.0  0.06099  0.97015  0.36066  1.0000
  H   H34       1.0  0.08982  0.59463  0.45821  1.0000
  C   C49       1.0  0.12746  0.52036  0.41439  1.0000
  C   C50       1.0  0.35496  0.97595  0.23060  1.0000
  O   O7        1.0  0.33349  0.95108  0.16882  1.0000
  O   O8        1.0  0.15235  0.54316  0.47413  1.0000
  C   C51       1.0  0.00303  0.70658  0.31953  1.0000
  N   N11       1.0  0.97151  0.77057  0.25822  1.0000
  N   N12       1.0  0.96935  0.72870  0.27946  1.0000
  N   N13       1.0  0.99705  0.66279  0.34007  1.0000
  H   H35       1.0  0.97288  0.64799  0.30941  1.0000
  C   C52       1.0  0.28479  0.50289  0.29233  1.0000
  N   N14       1.0  0.22296  0.51255  0.38564  1.0000
  N   N15       1.0  0.26568  0.51320  0.37179  1.0000
  N   N16       1.0  0.33009  0.50048  0.28893  1.0000
  H   H36       1.0  0.34545  0.51136  0.34171  1.0000
  C   C53       1.0  0.98903  0.44076  0.27259  1.0000
  C   C54       1.0  0.96003  0.40997  0.23176  1.0000
  C   C55       1.0  0.91737  0.42577  0.21060  1.0000
  H   H37       1.0  0.52087  0.43106  0.27838  1.0000
  H   H38       1.0  0.89556  0.40415  0.18205  1.0000
  C   C56       1.0  0.52756  0.09114  0.39489  1.0000
  C   C57       1.0  0.49880  0.06135  0.34971  1.0000
  H   H39       1.0  0.97071  0.07418  0.32293  1.0000
  C   C58       1.0  0.52267  0.13804  0.39626  1.0000
  C   C59       1.0  0.96969  0.36410  0.21851  1.0000
  O   O9        1.0  0.54613  0.16056  0.45891  1.0000
  O   O10       1.0  0.93967  0.33952  0.17263  1.0000
  C   C60       1.0  0.54260  0.23103  0.33198  1.0000
  C   C61       1.0  0.54546  0.27633  0.30862  1.0000
  C   C62       1.0  0.50742  0.29716  0.27130  1.0000
  H   H40       1.0  0.57046  0.21538  0.35394  1.0000
  C   C63       1.0  0.58805  0.30027  0.32173  1.0000
  H   H41       1.0  0.61449  0.27874  0.34598  1.0000
  H   H42       1.0  0.58368  0.32675  0.37043  1.0000
  H   H43       1.0  0.09894  0.31452  0.25852  1.0000
  N   N17       1.0  0.50478  0.34180  0.25481  1.0000
  H   H44       1.0  0.52858  0.35963  0.27834  1.0000
  C   C64       1.0  0.75505  0.99347  0.22195  1.0000
  C   C65       1.0  0.70887  0.99124  0.23619  1.0000
  C   C66       1.0  0.69236  0.00112  0.32302  1.0000
  H   H45       1.0  0.76663  0.98966  0.15863  1.0000
  C   C67       1.0  0.67947  0.98067  0.15925  1.0000
  H   H46       1.0  0.69771  0.97498  0.09740  1.0000
  H   H47       1.0  0.65661  0.00805  0.14760  1.0000
  H   H48       1.0  0.66058  0.45069  0.17353  1.0000
  N   N18       1.0  0.64809  0.00104  0.34289  1.0000
  H   H49       1.0  0.62877  0.99025  0.29606  1.0000
  C   C68       1.0  0.97675  0.48452  0.29920  1.0000
  C   C69       1.0  0.90090  0.46680  0.24161  1.0000
  C   C70       1.0  0.93109  0.49502  0.28649  1.0000
  H   H50       1.0  0.91905  0.02444  0.30897  1.0000
  C   C71       1.0  0.50767  0.01515  0.33931  1.0000
  C   C72       1.0  0.55086  0.00203  0.36698  1.0000
  C   C73       1.0  0.58156  0.03056  0.40879  1.0000
  C   C74       1.0  0.56705  0.07342  0.43127  1.0000
  H   H51       1.0  0.56099  0.47015  0.36066  1.0000
  H   H52       1.0  0.58982  0.09463  0.45821  1.0000
  C   C75       1.0  0.62746  0.02036  0.41439  1.0000
  C   C76       1.0  0.85496  0.47595  0.23060  1.0000
  O   O11       1.0  0.83349  0.45108  0.16882  1.0000
  O   O12       1.0  0.65235  0.04316  0.47413  1.0000
  C   C77       1.0  0.50303  0.20658  0.31953  1.0000
  N   N19       1.0  0.47151  0.27057  0.25822  1.0000
  N   N20       1.0  0.46935  0.22870  0.27946  1.0000
  N   N21       1.0  0.49705  0.16279  0.34007  1.0000
  H   H53       1.0  0.47288  0.14799  0.30941  1.0000
  C   C78       1.0  0.78479  0.00289  0.29233  1.0000
  N   N22       1.0  0.72296  0.01256  0.38564  1.0000
  N   N23       1.0  0.76568  0.01320  0.37179  1.0000
  N   N24       1.0  0.83009  0.00049  0.28893  1.0000
  H   H54       1.0  0.84545  0.01136  0.34171  1.0000
  C   C79       1.0  0.98903  0.94076  0.27259  1.0000
  C   C80       1.0  0.96003  0.90997  0.23176  1.0000
  C   C81       1.0  0.91737  0.92576  0.21060  1.0000
  H   H55       1.0  0.52087  0.93106  0.27838  1.0000
  H   H56       1.0  0.89556  0.90416  0.18205  1.0000
  C   C82       1.0  0.52756  0.59114  0.39489  1.0000
  C   C83       1.0  0.49880  0.56135  0.34971  1.0000
  H   H57       1.0  0.97071  0.57418  0.32293  1.0000
  C   C84       1.0  0.52267  0.63804  0.39626  1.0000
  C   C85       1.0  0.96969  0.86410  0.21851  1.0000
  O   O13       1.0  0.54613  0.66056  0.45891  1.0000
  O   O14       1.0  0.93967  0.83952  0.17263  1.0000
  C   C86       1.0  0.54260  0.73103  0.33198  1.0000
  C   C87       1.0  0.54546  0.77634  0.30862  1.0000
  C   C88       1.0  0.50742  0.79715  0.27130  1.0000
  H   H58       1.0  0.57046  0.71538  0.35394  1.0000
  C   C89       1.0  0.58805  0.80027  0.32173  1.0000
  H   H59       1.0  0.61449  0.77874  0.34598  1.0000
  H   H60       1.0  0.58368  0.82675  0.37043  1.0000
  H   H61       1.0  0.09894  0.81451  0.25852  1.0000
  N   N25       1.0  0.50478  0.84180  0.25481  1.0000
  H   H62       1.0  0.52858  0.85963  0.27834  1.0000
  C   C90       1.0  0.75505  0.49347  0.22195  1.0000
  C   C91       1.0  0.70887  0.49124  0.23619  1.0000
  C   C92       1.0  0.69236  0.50112  0.32302  1.0000
  H   H63       1.0  0.76663  0.48966  0.15863  1.0000
  C   C93       1.0  0.67947  0.48067  0.15925  1.0000
  H   H64       1.0  0.69771  0.47498  0.09740  1.0000
  H   H65       1.0  0.65661  0.50805  0.14760  1.0000
  H   H66       1.0  0.66058  0.95069  0.17353  1.0000
  N   N26       1.0  0.64809  0.50104  0.34289  1.0000
  H   H67       1.0  0.62877  0.49025  0.29606  1.0000
  C   C94       1.0  0.97675  0.98452  0.29920  1.0000
  C   C95       1.0  0.90090  0.96680  0.24161  1.0000
  C   C96       1.0  0.93109  0.99503  0.28649  1.0000
  H   H68       1.0  0.91905  0.52444  0.30897  1.0000
  C   C97       1.0  0.50767  0.51515  0.33931  1.0000
  C   C98       1.0  0.55086  0.50203  0.36698  1.0000
  C   C99       1.0  0.58156  0.53056  0.40879  1.0000
  C   C100      1.0  0.56705  0.57342  0.43127  1.0000
  H   H69       1.0  0.56099  0.97015  0.36066  1.0000
  H   H70       1.0  0.58982  0.59463  0.45821  1.0000
  C   C101      1.0  0.62746  0.52036  0.41439  1.0000
  C   C102      1.0  0.85496  0.97595  0.23060  1.0000
  O   O15       1.0  0.83349  0.95108  0.16882  1.0000
  O   O16       1.0  0.65235  0.54316  0.47413  1.0000
  C   C103      1.0  0.50303  0.70658  0.31953  1.0000
  N   N27       1.0  0.47151  0.77057  0.25822  1.0000
  N   N28       1.0  0.46935  0.72870  0.27946  1.0000
  N   N29       1.0  0.49705  0.66279  0.34007  1.0000
  H   H71       1.0  0.47288  0.64799  0.30941  1.0000
  C   C104      1.0  0.78479  0.50289  0.29233  1.0000
  N   N30       1.0  0.72296  0.51255  0.38564  1.0000
  N   N31       1.0  0.76568  0.51320  0.37179  1.0000
  N   N32       1.0  0.83009  0.50048  0.28893  1.0000
  H   H72       1.0  0.84545  0.51136  0.34171  1.0000
