data_image0
_chemical_formula_structural       C2H2C4H2C2H2C4H2C6H4C6H4C6H4C6H4C2H2C4H2C2H2C4H2C2H2C4H2C2H2C4H2C6H4C6H4C6H4C6H4C2H2C4H2C2H2C4H2C2H2C4H2C2H2C4H2C6H3C6H3C6H3C6H3C6H3C6H3C6H3C6H3C6H3C6H3C6H3C6H3C6H4C6H4C2H2C4H2C2H2C4H2C2H2C4H2C2H2C4H2C6H4C6H4C6H4C6H4C2H2C4H2C2H2C4H2C2H2C4H2C2H2C4H2C6H4C6H4C6H4C6H4
_chemical_formula_sum              "C288 H180"
_cell_length_a       51.8485
_cell_length_b       51.6908
_cell_length_c       14.8288
_cell_angle_alpha    90
_cell_angle_beta     90
_cell_angle_gamma    90.1775

_space_group_name_H-M_alt    "P 1"
_space_group_IT_number       1

loop_
  _space_group_symop_operation_xyz
  'x, y, z'

loop_
  _atom_site_type_symbol
  _atom_site_label
  _atom_site_symmetry_multiplicity
  _atom_site_fract_x
  _atom_site_fract_y
  _atom_site_fract_z
  _atom_site_occupancy
  C   C1        1.0  0.99154  0.53222  0.27273  1.0000
  C   C2        1.0  0.97258  0.55173  0.27437  1.0000
  H   H1        1.0  0.00371  0.53129  0.21851  1.0000
  H   H2        1.0  0.97127  0.56408  0.22062  1.0000
  C   C3        1.0  0.01386  0.49514  0.34413  1.0000
  C   C4        1.0  0.05327  0.45615  0.34179  1.0000
  C   C5        1.0  0.03548  0.45848  0.26995  1.0000
  C   C6        1.0  0.01638  0.47787  0.27050  1.0000
  H   H3        1.0  0.03656  0.44626  0.21576  1.0000
  H   H4        1.0  0.00391  0.47894  0.21717  1.0000
  C   C7        1.0  0.47697  0.99081  0.27281  1.0000
  C   C8        1.0  0.45733  0.97188  0.27441  1.0000
  H   H5        1.0  0.47800  0.00306  0.21869  1.0000
  H   H6        1.0  0.44499  0.97062  0.22067  1.0000
  C   C9        1.0  0.51415  0.01304  0.34433  1.0000
  C   C10       1.0  0.55322  0.05258  0.34219  1.0000
  C   C11       1.0  0.55083  0.03475  0.27030  1.0000
  C   C12       1.0  0.53138  0.01559  0.27074  1.0000
  H   H7        1.0  0.56299  0.03588  0.21606  1.0000
  H   H8        1.0  0.53025  0.00310  0.21733  1.0000
  C   C13       1.0  0.07782  0.36362  0.34716  1.0000
  C   C14       1.0  0.06433  0.35233  0.27410  1.0000
  C   C15       1.0  0.05869  0.32561  0.27291  1.0000
  C   C16       1.0  0.06572  0.30939  0.34577  1.0000
  C   C17       1.0  0.06738  0.26650  0.27105  1.0000
  C   C18       1.0  0.06240  0.23967  0.27114  1.0000
  H   H9        1.0  0.07698  0.27437  0.21729  1.0000
  H   H10       1.0  0.06808  0.22889  0.21678  1.0000
  H   H11       1.0  0.05911  0.36338  0.21984  1.0000
  H   H12       1.0  0.04906  0.31814  0.21856  1.0000
  C   C19       1.0  0.93038  0.64628  0.33692  1.0000
  C   C20       1.0  0.92295  0.66255  0.26483  1.0000
  C   C21       1.0  0.92922  0.68911  0.26511  1.0000
  C   C22       1.0  0.94242  0.70048  0.33875  1.0000
  C   C23       1.0  0.96127  0.73963  0.26784  1.0000
  C   C24       1.0  0.96708  0.76629  0.26969  1.0000
  H   H13       1.0  0.96721  0.72894  0.21363  1.0000
  H   H14       1.0  0.97668  0.77428  0.21615  1.0000
  H   H15       1.0  0.91304  0.65510  0.21100  1.0000
  H   H16       1.0  0.92336  0.70028  0.21197  1.0000
  C   C25       1.0  0.64544  0.07791  0.34712  1.0000
  C   C26       1.0  0.65665  0.06429  0.27434  1.0000
  C   C27       1.0  0.68326  0.05868  0.27328  1.0000
  C   C28       1.0  0.69947  0.06586  0.34602  1.0000
  C   C29       1.0  0.74224  0.06727  0.27120  1.0000
  C   C30       1.0  0.76897  0.06232  0.27152  1.0000
  H   H17       1.0  0.73446  0.07673  0.21705  1.0000
  H   H18       1.0  0.77976  0.06788  0.21700  1.0000
  H   H19       1.0  0.64562  0.05891  0.22021  1.0000
  H   H20       1.0  0.69067  0.04892  0.21915  1.0000
  C   C31       1.0  0.36273  0.92970  0.33693  1.0000
  C   C32       1.0  0.34642  0.92233  0.26488  1.0000
  C   C33       1.0  0.32002  0.92884  0.26507  1.0000
  C   C34       1.0  0.30886  0.94222  0.33858  1.0000
  C   C35       1.0  0.27014  0.96145  0.26742  1.0000
  C   C36       1.0  0.24364  0.96749  0.26906  1.0000
  H   H21       1.0  0.28090  0.96728  0.21320  1.0000
  H   H22       1.0  0.23583  0.97712  0.21534  1.0000
  H   H23       1.0  0.35371  0.91234  0.21107  1.0000
  H   H24       1.0  0.30882  0.92304  0.21191  1.0000
  C   C37       1.0  0.42861  0.81917  0.27070  1.0000
  C   C38       1.0  0.42226  0.84566  0.27064  1.0000
  H   H25       1.0  0.42287  0.80801  0.21729  1.0000
  H   H26       1.0  0.41243  0.85304  0.21661  1.0000
  C   C39       1.0  0.44777  0.78083  0.34500  1.0000
  C   C40       1.0  0.45911  0.72654  0.34589  1.0000
  C   C41       1.0  0.46657  0.74240  0.27265  1.0000
  C   C42       1.0  0.46068  0.76902  0.27169  1.0000
  H   H27       1.0  0.47597  0.73458  0.21847  1.0000
  H   H28       1.0  0.46634  0.77984  0.21735  1.0000
  C   C43       1.0  0.55895  0.18287  0.27846  1.0000
  C   C44       1.0  0.56454  0.15619  0.27989  1.0000
  H   H29       1.0  0.54927  0.19025  0.22414  1.0000
  H   H30       1.0  0.55924  0.14508  0.22581  1.0000
  C   C45       1.0  0.56047  0.22625  0.34950  1.0000
  C   C46       1.0  0.54937  0.28060  0.34683  1.0000
  C   C47       1.0  0.56286  0.26873  0.27503  1.0000
  C   C48       1.0  0.56799  0.24196  0.27578  1.0000
  H   H31       1.0  0.56868  0.27946  0.22064  1.0000
  H   H32       1.0  0.57781  0.23410  0.22259  1.0000
  C   C49       1.0  0.82031  0.57978  0.27035  1.0000
  C   C50       1.0  0.84678  0.58611  0.27035  1.0000
  H   H33       1.0  0.80926  0.58556  0.21689  1.0000
  H   H34       1.0  0.85421  0.59596  0.21635  1.0000
  C   C51       1.0  0.78190  0.56067  0.34452  1.0000
  C   C52       1.0  0.72764  0.54953  0.34484  1.0000
  C   C53       1.0  0.74340  0.54217  0.27142  1.0000
  C   C54       1.0  0.76999  0.54797  0.27078  1.0000
  H   H35       1.0  0.73553  0.53291  0.21692  1.0000
  H   H36       1.0  0.78074  0.54239  0.21628  1.0000
  C   C55       1.0  0.18343  0.44951  0.27897  1.0000
  C   C56       1.0  0.15672  0.44429  0.28032  1.0000
  H   H37       1.0  0.19102  0.45905  0.22457  1.0000
  H   H38       1.0  0.14578  0.44967  0.22605  1.0000
  C   C57       1.0  0.22662  0.44741  0.35036  1.0000
  C   C58       1.0  0.28102  0.45781  0.34829  1.0000
  C   C59       1.0  0.26901  0.44441  0.27642  1.0000
  C   C60       1.0  0.24221  0.43962  0.27687  1.0000
  H   H39       1.0  0.27963  0.43845  0.22212  1.0000
  H   H40       1.0  0.23423  0.42988  0.22361  1.0000
  C   C61       1.0  0.15595  0.02274  0.33339  1.0000
  C   C62       1.0  0.14062  0.03075  0.25971  1.0000
  C   C63       1.0  0.12796  0.05481  0.26089  1.0000
  C   C64       1.0  0.12970  0.07138  0.33667  1.0000
  C   C65       1.0  0.11288  0.11203  0.26946  1.0000
  C   C66       1.0  0.09573  0.13314  0.27171  1.0000
  H   H41       1.0  0.12412  0.10951  0.21343  1.0000
  H   H42       1.0  0.09458  0.14504  0.21669  1.0000
  H   H43       1.0  0.13784  0.01870  0.20574  1.0000
  H   H44       1.0  0.11615  0.05936  0.20795  1.0000
  C   C67       1.0  0.85318  0.98719  0.34283  1.0000
  C   C68       1.0  0.86840  0.97896  0.26915  1.0000
  C   C69       1.0  0.88104  0.95492  0.27089  1.0000
  C   C70       1.0  0.87938  0.93855  0.34720  1.0000
  C   C71       1.0  0.89567  0.89770  0.28035  1.0000
  C   C72       1.0  0.91274  0.87654  0.28214  1.0000
  H   H45       1.0  0.88422  0.90018  0.22482  1.0000
  H   H46       1.0  0.91365  0.86459  0.22719  1.0000
  H   H47       1.0  0.87104  0.99081  0.21456  1.0000
  H   H48       1.0  0.89275  0.95019  0.21785  1.0000
  C   C73       1.0  0.98662  0.15532  0.33970  1.0000
  C   C74       1.0  0.97851  0.13973  0.26660  1.0000
  C   C75       1.0  0.95424  0.12746  0.26747  1.0000
  C   C76       1.0  0.93746  0.12996  0.34224  1.0000
  C   C77       1.0  0.89697  0.11334  0.27336  1.0000
  C   C78       1.0  0.87570  0.09627  0.27488  1.0000
  H   H49       1.0  0.90004  0.12425  0.21676  1.0000
  H   H50       1.0  0.86425  0.09485  0.21887  1.0000
  H   H51       1.0  0.99055  0.13656  0.21305  1.0000
  H   H52       1.0  0.94960  0.11546  0.21500  1.0000
  C   C79       1.0  0.02199  0.85445  0.33708  1.0000
  C   C80       1.0  0.03013  0.87022  0.26453  1.0000
  C   C81       1.0  0.05428  0.88273  0.26652  1.0000
  C   C82       1.0  0.07079  0.88041  0.34210  1.0000
  C   C83       1.0  0.11169  0.89671  0.27584  1.0000
  C   C84       1.0  0.13305  0.91363  0.27847  1.0000
  H   H53       1.0  0.10900  0.88552  0.21966  1.0000
  H   H54       1.0  0.14492  0.91472  0.22345  1.0000
  H   H55       1.0  0.01817  0.87335  0.21072  1.0000
  H   H56       1.0  0.05900  0.89483  0.21438  1.0000
  C   C85       1.0  0.36344  0.56139  0.28068  1.0000
  C   C86       1.0  0.35047  0.53740  0.28244  1.0000
  H   H57       1.0  0.36149  0.57289  0.22493  1.0000
  H   H58       1.0  0.33990  0.53188  0.22735  1.0000
  C   C87       1.0  0.39476  0.59229  0.34784  1.0000
  C   C88       1.0  0.42970  0.63526  0.34365  1.0000
  C   C89       1.0  0.42805  0.61786  0.27027  1.0000
  C   C90       1.0  0.41070  0.59689  0.27196  1.0000
  H   H59       1.0  0.44006  0.61991  0.21590  1.0000
  H   H60       1.0  0.41085  0.58416  0.21908  1.0000
  C   C91       1.0  0.64488  0.44599  0.26933  1.0000
  C   C92       1.0  0.65794  0.46996  0.27176  1.0000
  H   H61       1.0  0.64641  0.43483  0.21259  1.0000
  H   H62       1.0  0.66808  0.47582  0.21613  1.0000
  C   C93       1.0  0.61407  0.41465  0.33724  1.0000
  C   C94       1.0  0.57900  0.37176  0.33421  1.0000
  C   C95       1.0  0.58014  0.38943  0.26153  1.0000
  C   C96       1.0  0.59758  0.41036  0.26258  1.0000
  H   H63       1.0  0.56765  0.38767  0.20838  1.0000
  H   H64       1.0  0.59701  0.42332  0.21046  1.0000
  C   C97       1.0  0.56286  0.64475  0.27418  1.0000
  C   C98       1.0  0.53885  0.65750  0.27573  1.0000
  H   H65       1.0  0.57422  0.64662  0.21812  1.0000
  H   H66       1.0  0.53320  0.66781  0.22025  1.0000
  C   C99       1.0  0.59399  0.61397  0.34258  1.0000
  C   C100      1.0  0.63681  0.57912  0.34008  1.0000
  C   C101      1.0  0.61964  0.58063  0.26619  1.0000
  C   C102      1.0  0.59874  0.59793  0.26706  1.0000
  H   H67       1.0  0.62177  0.56851  0.21207  1.0000
  H   H68       1.0  0.58616  0.59761  0.21389  1.0000
  C   C103      1.0  0.44593  0.36224  0.27607  1.0000
  C   C104      1.0  0.46987  0.34940  0.27879  1.0000
  H   H69       1.0  0.43456  0.36004  0.22016  1.0000
  H   H70       1.0  0.47550  0.33875  0.22407  1.0000
  C   C105      1.0  0.41482  0.39339  0.34197  1.0000
  C   C106      1.0  0.37175  0.42786  0.33705  1.0000
  C   C107      1.0  0.38916  0.42642  0.26387  1.0000
  C   C108      1.0  0.41018  0.40924  0.26586  1.0000
  H   H71       1.0  0.38719  0.43855  0.20974  1.0000
  H   H72       1.0  0.42296  0.40960  0.21327  1.0000
  C   C109      1.0  0.08479  0.39038  0.34654  1.0000
  C   C110      1.0  0.11101  0.39781  0.35330  1.0000
  C   C111      1.0  0.11860  0.42412  0.35179  1.0000
  C   C112      1.0  0.09918  0.44326  0.34685  1.0000
  C   C113      1.0  0.07269  0.43658  0.34179  1.0000
  C   C114      1.0  0.06589  0.41001  0.33952  1.0000
  H   H73       1.0  0.10442  0.46239  0.34722  1.0000
  H   H74       1.0  0.04681  0.40488  0.33702  1.0000
  H   H75       1.0  0.12491  0.38378  0.35608  1.0000
  C   C115      1.0  0.92344  0.61953  0.33817  1.0000
  C   C116      1.0  0.89718  0.61201  0.33665  1.0000
  C   C117      1.0  0.88967  0.58573  0.34331  1.0000
  C   C118      1.0  0.90920  0.56671  0.35012  1.0000
  C   C119      1.0  0.93571  0.57345  0.34776  1.0000
  C   C120      1.0  0.94245  0.59999  0.34289  1.0000
  H   H76       1.0  0.90404  0.54758  0.35252  1.0000
  H   H77       1.0  0.96154  0.60518  0.34250  1.0000
  H   H78       1.0  0.88324  0.62601  0.33401  1.0000
  C   C121      1.0  0.61875  0.08471  0.34658  1.0000
  C   C122      1.0  0.61127  0.11095  0.35331  1.0000
  C   C123      1.0  0.58503  0.11834  0.35165  1.0000
  C   C124      1.0  0.56599  0.09869  0.34689  1.0000
  C   C125      1.0  0.57272  0.07219  0.34204  1.0000
  C   C126      1.0  0.59922  0.06559  0.33972  1.0000
  H   H79       1.0  0.54691  0.10378  0.34721  1.0000
  H   H80       1.0  0.60436  0.04648  0.33732  1.0000
  H   H81       1.0  0.62523  0.12502  0.35584  1.0000
  C   C127      1.0  0.38934  0.92266  0.33806  1.0000
  C   C128      1.0  0.39664  0.89631  0.33642  1.0000
  C   C129      1.0  0.42279  0.88876  0.34319  1.0000
  C   C130      1.0  0.44189  0.90832  0.34990  1.0000
  C   C131      1.0  0.43538  0.93491  0.34757  1.0000
  C   C132      1.0  0.40897  0.94171  0.34273  1.0000
  H   H82       1.0  0.46093  0.90312  0.35243  1.0000
  H   H83       1.0  0.40395  0.96087  0.34240  1.0000
  H   H84       1.0  0.38259  0.88235  0.33398  1.0000
  C   C133      1.0  0.05899  0.15552  0.34307  1.0000
  C   C134      1.0  0.03304  0.14713  0.34290  1.0000
  C   C135      1.0  0.01238  0.16487  0.34298  1.0000
  C   C136      1.0  0.01806  0.19164  0.34583  1.0000
  C   C137      1.0  0.04388  0.20072  0.34347  1.0000
  C   C138      1.0  0.06416  0.18240  0.34077  1.0000
  H   H85       1.0  0.00320  0.20465  0.34577  1.0000
  H   H86       1.0  0.08292  0.18869  0.34102  1.0000
  H   H87       1.0  0.02910  0.12767  0.34269  1.0000
  C   C139      1.0  0.94978  0.85427  0.35109  1.0000
  C   C140      1.0  0.97569  0.86268  0.34633  1.0000
  C   C141      1.0  0.99626  0.84491  0.34047  1.0000
  C   C142      1.0  0.99057  0.81813  0.33994  1.0000
  C   C143      1.0  0.96477  0.80905  0.34407  1.0000
  C   C144      1.0  0.94456  0.82740  0.34933  1.0000
  H   H88       1.0  0.00540  0.80513  0.33647  1.0000
  H   H89       1.0  0.92580  0.82115  0.35195  1.0000
  H   H90       1.0  0.97966  0.88213  0.34703  1.0000
  C   C145      1.0  0.85274  0.05971  0.34607  1.0000
  C   C146      1.0  0.86118  0.03376  0.34600  1.0000
  C   C147      1.0  0.84353  0.01290  0.34548  1.0000
  C   C148      1.0  0.81683  0.01837  0.34746  1.0000
  C   C149      1.0  0.80773  0.04419  0.34494  1.0000
  C   C150      1.0  0.82595  0.06469  0.34296  1.0000
  H   H91       1.0  0.80388  0.00335  0.34720  1.0000
  H   H92       1.0  0.81966  0.08346  0.34316  1.0000
  H   H93       1.0  0.88059  0.02997  0.34643  1.0000
  C   C151      1.0  0.15570  0.95037  0.34900  1.0000
  C   C152      1.0  0.14749  0.97634  0.34361  1.0000
  C   C153      1.0  0.16534  0.99696  0.33777  1.0000
  C   C154      1.0  0.19201  0.99125  0.33800  1.0000
  C   C155      1.0  0.20090  0.96538  0.34287  1.0000
  C   C156      1.0  0.18246  0.94512  0.34801  1.0000
  H   H94       1.0  0.20507  0.00613  0.33448  1.0000
  H   H95       1.0  0.18855  0.92630  0.35095  1.0000
  H   H96       1.0  0.12812  0.98032  0.34368  1.0000
  C   C157      1.0  0.44965  0.65420  0.34633  1.0000
  C   C158      1.0  0.47561  0.64601  0.34647  1.0000
  C   C159      1.0  0.49623  0.66393  0.34652  1.0000
  C   C160      1.0  0.49050  0.69065  0.34378  1.0000
  C   C161      1.0  0.46465  0.69952  0.34613  1.0000
  C   C162      1.0  0.44442  0.68103  0.34875  1.0000
  H   H97       1.0  0.50532  0.70379  0.34383  1.0000
  H   H98       1.0  0.42564  0.68714  0.34848  1.0000
  H   H99       1.0  0.47958  0.62658  0.34664  1.0000
  C   C163      1.0  0.55897  0.35293  0.33860  1.0000
  C   C164      1.0  0.53308  0.36123  0.34339  1.0000
  C   C165      1.0  0.51247  0.34337  0.34923  1.0000
  C   C166      1.0  0.51812  0.31662  0.34975  1.0000
  C   C167      1.0  0.54390  0.30764  0.34560  1.0000
  C   C168      1.0  0.56414  0.32608  0.34032  1.0000
  H   H100      1.0  0.50326  0.30355  0.35325  1.0000
  H   H101      1.0  0.58289  0.31992  0.33769  1.0000
  H   H102      1.0  0.52915  0.38066  0.34268  1.0000
  C   C169      1.0  0.65557  0.55911  0.34372  1.0000
  C   C170      1.0  0.64724  0.53307  0.34376  1.0000
  C   C171      1.0  0.66496  0.51238  0.34422  1.0000
  C   C172      1.0  0.69164  0.51810  0.34212  1.0000
  C   C173      1.0  0.70066  0.54402  0.34479  1.0000
  C   C174      1.0  0.68236  0.56433  0.34689  1.0000
  H   H103      1.0  0.70464  0.50321  0.34246  1.0000
  H   H104      1.0  0.68859  0.58316  0.34664  1.0000
  H   H105      1.0  0.62784  0.52909  0.34335  1.0000
  C   C175      1.0  0.35308  0.44794  0.34076  1.0000
  C   C176      1.0  0.36157  0.47388  0.34607  1.0000
  C   C177      1.0  0.34394  0.49458  0.35184  1.0000
  C   C178      1.0  0.31723  0.48898  0.35173  1.0000
  C   C179      1.0  0.30805  0.46315  0.34713  1.0000
  C   C180      1.0  0.32627  0.44280  0.34191  1.0000
  H   H106      1.0  0.30433  0.50393  0.35527  1.0000
  H   H107      1.0  0.31997  0.42401  0.33914  1.0000
  H   H108      1.0  0.38099  0.47778  0.34587  1.0000
  C   C181      1.0  0.95520  0.55395  0.34753  1.0000
  C   C182      1.0  0.95764  0.53616  0.41949  1.0000
  C   C183      1.0  0.97710  0.51712  0.41899  1.0000
  C   C184      1.0  0.99429  0.51465  0.34527  1.0000
  C   C185      1.0  0.03145  0.49251  0.41657  1.0000
  C   C186      1.0  0.05101  0.47361  0.41486  1.0000
  H   H109      1.0  0.03049  0.50475  0.47070  1.0000
  H   H110      1.0  0.06335  0.47236  0.46858  1.0000
  H   H111      1.0  0.94551  0.53724  0.47381  1.0000
  H   H112      1.0  0.97826  0.50465  0.47242  1.0000
  C   C187      1.0  0.45497  0.95442  0.34747  1.0000
  C   C188      1.0  0.47276  0.95675  0.41937  1.0000
  C   C189      1.0  0.49193  0.97618  0.41894  1.0000
  C   C190      1.0  0.49454  0.99346  0.34532  1.0000
  C   C191      1.0  0.51685  0.03066  0.41684  1.0000
  C   C192      1.0  0.53580  0.05028  0.41525  1.0000
  H   H113      1.0  0.50463  0.02967  0.47095  1.0000
  H   H114      1.0  0.53709  0.06266  0.46896  1.0000
  H   H115      1.0  0.47159  0.94454  0.47359  1.0000
  H   H116      1.0  0.50440  0.97727  0.47232  1.0000
  C   C193      1.0  0.07880  0.32084  0.41953  1.0000
  C   C194      1.0  0.08504  0.34739  0.41968  1.0000
  H   H117      1.0  0.08453  0.30974  0.47303  1.0000
  H   H118      1.0  0.09479  0.35486  0.47381  1.0000
  C   C195      1.0  0.06007  0.28227  0.34478  1.0000
  C   C196      1.0  0.04930  0.22779  0.34391  1.0000
  C   C197      1.0  0.04163  0.24354  0.41707  1.0000
  C   C198      1.0  0.04725  0.27025  0.41802  1.0000
  H   H119      1.0  0.03226  0.23558  0.47117  1.0000
  H   H120      1.0  0.04145  0.28098  0.47232  1.0000
  C   C199      1.0  0.94960  0.68421  0.41125  1.0000
  C   C200      1.0  0.94398  0.65750  0.40984  1.0000
  H   H121      1.0  0.95930  0.69164  0.46553  1.0000
  H   H122      1.0  0.94929  0.64641  0.46390  1.0000
  C   C201      1.0  0.94809  0.72758  0.34022  1.0000
  C   C202      1.0  0.95925  0.78198  0.34284  1.0000
  C   C203      1.0  0.94576  0.77005  0.41467  1.0000
  C   C204      1.0  0.94060  0.74325  0.41394  1.0000
  H   H123      1.0  0.93996  0.78075  0.46906  1.0000
  H   H124      1.0  0.93078  0.73535  0.46715  1.0000
  C   C205      1.0  0.68810  0.07909  0.41948  1.0000
  C   C206      1.0  0.66165  0.08530  0.41949  1.0000
  H   H125      1.0  0.69917  0.08494  0.47290  1.0000
  H   H126      1.0  0.65423  0.09513  0.47348  1.0000
  C   C207      1.0  0.72648  0.06019  0.34524  1.0000
  C   C208      1.0  0.78074  0.04945  0.34486  1.0000
  C   C209      1.0  0.76500  0.04199  0.41833  1.0000
  C   C210      1.0  0.73840  0.04759  0.41901  1.0000
  H   H127      1.0  0.77290  0.03281  0.47286  1.0000
  H   H128      1.0  0.72767  0.04195  0.47355  1.0000
  C   C211      1.0  0.32518  0.94931  0.41109  1.0000
  C   C212      1.0  0.35172  0.94347  0.40976  1.0000
  H   H129      1.0  0.31789  0.95915  0.46527  1.0000
  H   H130      1.0  0.36284  0.94876  0.46376  1.0000
  C   C213      1.0  0.28193  0.94817  0.33992  1.0000
  C   C214      1.0  0.22785  0.95979  0.34214  1.0000
  C   C215      1.0  0.23952  0.94621  0.41414  1.0000
  C   C216      1.0  0.26616  0.94083  0.41361  1.0000
  H   H131      1.0  0.22874  0.94047  0.46844  1.0000
  H   H132      1.0  0.27387  0.93093  0.46690  1.0000
  C   C217      1.0  0.42956  0.86198  0.34293  1.0000
  C   C218      1.0  0.44322  0.85083  0.41572  1.0000
  C   C219      1.0  0.44896  0.82418  0.41686  1.0000
  C   C220      1.0  0.44190  0.80787  0.34416  1.0000
  C   C221      1.0  0.44067  0.76496  0.41881  1.0000
  C   C222      1.0  0.44592  0.73820  0.41871  1.0000
  H   H133      1.0  0.43102  0.77267  0.47263  1.0000
  H   H134      1.0  0.44035  0.72734  0.47308  1.0000
  H   H135      1.0  0.44855  0.86195  0.46974  1.0000
  H   H136      1.0  0.45876  0.81682  0.47096  1.0000
  C   C223      1.0  0.57811  0.14504  0.35288  1.0000
  C   C224      1.0  0.58552  0.16135  0.42502  1.0000
  C   C225      1.0  0.57927  0.18788  0.42471  1.0000
  C   C226      1.0  0.56611  0.19918  0.35100  1.0000
  C   C227      1.0  0.54730  0.23824  0.42186  1.0000
  C   C228      1.0  0.54152  0.26487  0.41998  1.0000
  H   H137      1.0  0.54134  0.22752  0.47607  1.0000
  H   H138      1.0  0.53193  0.27282  0.47351  1.0000
  H   H139      1.0  0.59540  0.15396  0.47889  1.0000
  H   H140      1.0  0.58512  0.19907  0.47788  1.0000
  C   C229      1.0  0.86297  0.57880  0.34275  1.0000
  C   C230      1.0  0.85173  0.56515  0.41555  1.0000
  C   C231      1.0  0.82511  0.55942  0.41660  1.0000
  C   C232      1.0  0.80891  0.56650  0.34382  1.0000
  C   C233      1.0  0.76611  0.56766  0.41850  1.0000
  C   C234      1.0  0.73938  0.56251  0.41813  1.0000
  H   H141      1.0  0.77387  0.57717  0.47265  1.0000
  H   H142      1.0  0.72858  0.56799  0.47264  1.0000
  H   H143      1.0  0.86275  0.55983  0.46969  1.0000
  H   H144      1.0  0.81768  0.54963  0.47073  1.0000
  C   C235      1.0  0.14530  0.43091  0.35339  1.0000
  C   C236      1.0  0.16137  0.42331  0.42569  1.0000
  C   C237      1.0  0.18795  0.42919  0.42546  1.0000
  C   C238      1.0  0.19952  0.44215  0.35165  1.0000
  C   C239      1.0  0.23876  0.46048  0.42281  1.0000
  C   C240      1.0  0.26543  0.46591  0.42123  1.0000
  H   H145      1.0  0.22815  0.46663  0.47686  1.0000
  H   H146      1.0  0.27347  0.47547  0.47477  1.0000
  H   H147      1.0  0.15379  0.41351  0.47956  1.0000
  H   H148      1.0  0.19896  0.42319  0.47873  1.0000
  C   C241      1.0  0.14535  0.06341  0.40982  1.0000
  C   C242      1.0  0.15846  0.03956  0.40801  1.0000
  H   H149      1.0  0.14689  0.07471  0.46624  1.0000
  H   H150      1.0  0.16866  0.03393  0.46372  1.0000
  C   C243      1.0  0.11421  0.09418  0.34184  1.0000
  C   C244      1.0  0.07899  0.13674  0.34583  1.0000
  C   C245      1.0  0.08050  0.11918  0.41873  1.0000
  C   C246      1.0  0.09798  0.09841  0.41713  1.0000
  H   H151      1.0  0.06832  0.12095  0.47272  1.0000
  H   H152      1.0  0.09772  0.08556  0.46966  1.0000
  C   C247      1.0  0.86384  0.94672  0.42039  1.0000
  C   C248      1.0  0.85071  0.97056  0.41796  1.0000
  H   H153      1.0  0.86235  0.93554  0.47712  1.0000
  H   H154      1.0  0.84054  0.97633  0.47358  1.0000
  C   C249      1.0  0.89472  0.91567  0.35242  1.0000
  C   C250      1.0  0.92979  0.87302  0.35542  1.0000
  C   C251      1.0  0.92869  0.89070  0.42805  1.0000
  C   C252      1.0  0.91124  0.91151  0.42699  1.0000
  H   H155      1.0  0.94119  0.88902  0.48116  1.0000
  H   H156      1.0  0.91183  0.92449  0.47908  1.0000
  C   C253      1.0  0.94551  0.14592  0.41473  1.0000
  C   C254      1.0  0.96960  0.15863  0.41318  1.0000
  H   H157      1.0  0.93402  0.14803  0.47036  1.0000
  H   H158      1.0  0.97520  0.16919  0.46826  1.0000
  C   C255      1.0  0.91432  0.11489  0.34701  1.0000
  C   C256      1.0  0.87143  0.07989  0.34968  1.0000
  C   C257      1.0  0.88844  0.08168  0.42399  1.0000
  C   C258      1.0  0.90938  0.09906  0.42301  1.0000
  H   H159      1.0  0.88620  0.06969  0.47840  1.0000
  H   H160      1.0  0.92188  0.09893  0.47645  1.0000
  C   C259      1.0  0.06266  0.86438  0.41421  1.0000
  C   C260      1.0  0.03874  0.85136  0.41144  1.0000
  H   H161      1.0  0.07394  0.86242  0.47042  1.0000
  H   H162      1.0  0.03303  0.84082  0.46640  1.0000
  C   C261      1.0  0.09381  0.89559  0.34797  1.0000
  C   C262      1.0  0.13687  0.93034  0.35273  1.0000
  C   C263      1.0  0.11925  0.92908  0.42536  1.0000
  C   C264      1.0  0.09824  0.91177  0.42348  1.0000
  H   H163      1.0  0.12111  0.94139  0.47907  1.0000
  H   H164      1.0  0.08533  0.91222  0.47566  1.0000
  C   C265      1.0  0.35354  0.52035  0.35609  1.0000
  C   C266      1.0  0.36926  0.52826  0.42900  1.0000
  C   C267      1.0  0.38178  0.55246  0.42794  1.0000
  C   C268      1.0  0.37947  0.56928  0.35305  1.0000
  C   C269      1.0  0.39622  0.60997  0.42069  1.0000
  C   C270      1.0  0.41324  0.63129  0.41836  1.0000
  H   H165      1.0  0.38521  0.60716  0.47713  1.0000
  H   H166      1.0  0.41453  0.64305  0.47371  1.0000
  H   H167      1.0  0.37236  0.51609  0.48236  1.0000
  H   H168      1.0  0.39386  0.55700  0.48026  1.0000
  C   C271      1.0  0.65539  0.48657  0.34687  1.0000
  C   C272      1.0  0.64022  0.47818  0.42057  1.0000
  C   C273      1.0  0.62765  0.45401  0.41882  1.0000
  C   C274      1.0  0.62937  0.43766  0.34250  1.0000
  C   C275      1.0  0.61309  0.39670  0.40937  1.0000
  C   C276      1.0  0.59602  0.37543  0.40757  1.0000
  H   H169      1.0  0.62451  0.39927  0.46496  1.0000
  H   H170      1.0  0.59508  0.36350  0.46259  1.0000
  H   H171      1.0  0.63753  0.49000  0.47515  1.0000
  H   H172      1.0  0.61596  0.44918  0.47185  1.0000
  C   C277      1.0  0.52199  0.65454  0.34986  1.0000
  C   C278      1.0  0.53015  0.63922  0.42347  1.0000
  C   C279      1.0  0.55432  0.62691  0.42255  1.0000
  C   C280      1.0  0.57096  0.62908  0.34722  1.0000
  C   C281      1.0  0.61148  0.61268  0.41587  1.0000
  C   C282      1.0  0.63271  0.59570  0.41441  1.0000
  H   H173      1.0  0.60857  0.62376  0.47212  1.0000
  H   H174      1.0  0.64429  0.59451  0.47015  1.0000
  H   H175      1.0  0.51817  0.63624  0.47742  1.0000
  H   H176      1.0  0.55898  0.61510  0.47546  1.0000
  C   C283      1.0  0.48675  0.35280  0.35271  1.0000
  C   C284      1.0  0.47870  0.36870  0.42492  1.0000
  C   C285      1.0  0.45453  0.38103  0.42301  1.0000
  C   C286      1.0  0.43789  0.37840  0.34784  1.0000
  C   C287      1.0  0.39713  0.39467  0.41461  1.0000
  C   C288      1.0  0.37577  0.41147  0.41194  1.0000
  H   H177      1.0  0.39998  0.38373  0.47124  1.0000
  H   H178      1.0  0.36407  0.41273  0.46735  1.0000
  H   H179      1.0  0.49073  0.37204  0.47844  1.0000
  H   H180      1.0  0.44988  0.39322  0.47487  1.0000
