data_image0
_chemical_formula_structural       C3H2C2NC2O2HC2NC2O2HC2NC2O2HNCHNCHNCHC21H13C24H15C24H15C24H15NCHNCHNCHC2NC2O2HC2NC2O2HC2NC2O2H
_chemical_formula_sum              "C126 H72 N12 O12"
_cell_length_a       45.6583
_cell_length_b       45.6583
_cell_length_c       14.9705
_cell_angle_alpha    90
_cell_angle_beta     90
_cell_angle_gamma    120

_space_group_name_H-M_alt    "P 1"
_space_group_IT_number       1

loop_
  _space_group_symop_operation_xyz
  'x, y, z'

loop_
  _atom_site_type_symbol
  _atom_site_label
  _atom_site_symmetry_multiplicity
  _atom_site_fract_x
  _atom_site_fract_y
  _atom_site_fract_z
  _atom_site_occupancy
  C   C1        1.0  0.01171  0.03205  0.33820  1.0000
  C   C2        1.0  0.01097  0.97862  0.34140  1.0000
  C   C3        1.0  0.02987  0.01440  0.34046  1.0000
  H   H1        1.0  0.02493  0.05792  0.33698  1.0000
  H   H2        1.0  0.02346  0.96527  0.34533  1.0000
  C   C4        1.0  0.17494  0.08708  0.32627  1.0000
  C   C5        1.0  0.24620  0.12354  0.33398  1.0000
  N   N1        1.0  0.22900  0.11123  0.25611  1.0000
  C   C6        1.0  0.19472  0.09344  0.24752  1.0000
  C   C7        1.0  0.18160  0.08479  0.16221  1.0000
  O   O1        1.0  0.19592  0.07630  0.10745  1.0000
  O   O2        1.0  0.16407  0.09666  0.13540  1.0000
  H   H3        1.0  0.15610  0.09423  0.08028  1.0000
  C   C8        1.0  0.90374  0.08805  0.31623  1.0000
  C   C9        1.0  0.86751  0.12311  0.32438  1.0000
  N   N2        1.0  0.87974  0.11821  0.24636  1.0000
  C   C10       1.0  0.89749  0.10166  0.23775  1.0000
  C   C11       1.0  0.90602  0.09703  0.15201  1.0000
  O   O3        1.0  0.91699  0.12091  0.10025  1.0000
  O   O4        1.0  0.89242  0.06879  0.11660  1.0000
  H   H4        1.0  0.88103  0.04930  0.14540  1.0000
  C   C12       1.0  0.90150  0.81618  0.32490  1.0000
  C   C13       1.0  0.86716  0.74503  0.33084  1.0000
  N   N3        1.0  0.87181  0.76238  0.25326  1.0000
  C   C14       1.0  0.88844  0.79668  0.24586  1.0000
  C   C15       1.0  0.88954  0.81041  0.16329  1.0000
  O   O5        1.0  0.86708  0.81684  0.14661  1.0000
  O   O6        1.0  0.90229  0.80269  0.10135  1.0000
  H   H5        1.0  0.90212  0.80834  0.04479  1.0000
  N   N4        1.0  0.59163  0.15847  0.27465  1.0000
  C   C16       1.0  0.56187  0.15797  0.26459  1.0000
  H   H6        1.0  0.55749  0.16654  0.20594  1.0000
  N   N5        1.0  0.83193  0.43349  0.27401  1.0000
  C   C17       1.0  0.83252  0.40430  0.26364  1.0000
  H   H7        1.0  0.82425  0.39154  0.20464  1.0000
  N   N6        1.0  0.55715  0.39940  0.27478  1.0000
  C   C18       1.0  0.58628  0.42923  0.26417  1.0000
  H   H8        1.0  0.59917  0.43355  0.20543  1.0000
  C   C19       1.0  0.97589  0.01515  0.33627  1.0000
  C   C20       1.0  0.97521  0.96061  0.33929  1.0000
  C   C21       1.0  0.95819  0.97933  0.33697  1.0000
  C   C22       1.0  0.06616  0.03210  0.33891  1.0000
  C   C23       1.0  0.08557  0.06205  0.38904  1.0000
  C   C24       1.0  0.12115  0.07985  0.38512  1.0000
  C   C25       1.0  0.13884  0.06858  0.33040  1.0000
  C   C26       1.0  0.11954  0.03815  0.28232  1.0000
  C   C27       1.0  0.08399  0.02047  0.28588  1.0000
  C   C28       1.0  0.95809  0.03360  0.33151  1.0000
  C   C29       1.0  0.96962  0.06255  0.27648  1.0000
  C   C30       1.0  0.95204  0.08052  0.27147  1.0000
  C   C31       1.0  0.92187  0.07005  0.32029  1.0000
  C   C32       1.0  0.91060  0.04147  0.37648  1.0000
  C   C33       1.0  0.92826  0.02358  0.38175  1.0000
  C   C34       1.0  0.95687  0.92450  0.33640  1.0000
  C   C35       1.0  0.92921  0.90542  0.39423  1.0000
  C   C36       1.0  0.91124  0.86982  0.39096  1.0000
  C   C37       1.0  0.91979  0.85216  0.32821  1.0000
  C   C38       1.0  0.94758  0.87119  0.27085  1.0000
  C   C39       1.0  0.96584  0.90672  0.27501  1.0000
  H   H9        1.0  0.96195  0.10175  0.23254  1.0000
  H   H10       1.0  0.99085  0.07071  0.23816  1.0000
  H   H11       1.0  0.88903  0.03305  0.41358  1.0000
  H   H12       1.0  0.91924  0.00327  0.42398  1.0000
  H   H13       1.0  0.92222  0.91731  0.44039  1.0000
  H   H14       1.0  0.89135  0.85690  0.43381  1.0000
  H   H15       1.0  0.98551  0.91955  0.23152  1.0000
  H   H16       1.0  0.95516  0.85932  0.22623  1.0000
  H   H17       1.0  0.07123  0.99918  0.24756  1.0000
  H   H18       1.0  0.13118  0.02831  0.24436  1.0000
  H   H19       1.0  0.13405  0.10162  0.42164  1.0000
  H   H20       1.0  0.07396  0.07116  0.42980  1.0000
  H   H21       1.0  0.93236  0.96652  0.33184  1.0000
  C   C40       1.0  0.44574  0.24850  0.34432  1.0000
  C   C41       1.0  0.41012  0.23115  0.33697  1.0000
  C   C42       1.0  0.39109  0.19536  0.33115  1.0000
  C   C43       1.0  0.40866  0.17708  0.33051  1.0000
  C   C44       1.0  0.44422  0.19386  0.33801  1.0000
  C   C45       1.0  0.46235  0.22944  0.34466  1.0000
  C   C46       1.0  0.35497  0.17798  0.33044  1.0000
  C   C47       1.0  0.33687  0.18591  0.39341  1.0000
  C   C48       1.0  0.30129  0.16807  0.39510  1.0000
  C   C49       1.0  0.28232  0.14174  0.33343  1.0000
  C   C50       1.0  0.30053  0.13423  0.26956  1.0000
  C   C51       1.0  0.33613  0.15174  0.26864  1.0000
  C   C52       1.0  0.46520  0.28430  0.35251  1.0000
  C   C53       1.0  0.46474  0.30575  0.28510  1.0000
  C   C54       1.0  0.48819  0.34073  0.28642  1.0000
  C   C55       1.0  0.51213  0.35535  0.35627  1.0000
  C   C56       1.0  0.51178  0.33389  0.42493  1.0000
  C   C57       1.0  0.48868  0.29899  0.42319  1.0000
  C   C58       1.0  0.46237  0.17621  0.34195  1.0000
  C   C59       1.0  0.48016  0.17770  0.42053  1.0000
  C   C60       1.0  0.50419  0.16704  0.42005  1.0000
  C   C61       1.0  0.51173  0.15516  0.34074  1.0000
  C   C62       1.0  0.49258  0.15227  0.26330  1.0000
  C   C63       1.0  0.46820  0.16260  0.26377  1.0000
  H   H22       1.0  0.48836  0.35533  0.23431  1.0000
  H   H23       1.0  0.44893  0.29579  0.23134  1.0000
  H   H24       1.0  0.52976  0.34303  0.47407  1.0000
  H   H25       1.0  0.49017  0.28413  0.47216  1.0000
  H   H26       1.0  0.47728  0.18850  0.47736  1.0000
  H   H27       1.0  0.51793  0.17054  0.47709  1.0000
  H   H28       1.0  0.45655  0.16234  0.20510  1.0000
  H   H29       1.0  0.49714  0.14389  0.20446  1.0000
  H   H30       1.0  0.34822  0.14538  0.22147  1.0000
  H   H31       1.0  0.28801  0.11532  0.22381  1.0000
  H   H32       1.0  0.28942  0.17505  0.44128  1.0000
  H   H33       1.0  0.34948  0.20441  0.44014  1.0000
  H   H34       1.0  0.39788  0.24481  0.33738  1.0000
  H   H35       1.0  0.48823  0.24171  0.34901  1.0000
  H   H36       1.0  0.39544  0.15118  0.32866  1.0000
  C   C64       1.0  0.74252  0.19761  0.34103  1.0000
  C   C65       1.0  0.75985  0.17938  0.33197  1.0000
  C   C66       1.0  0.79563  0.19615  0.32536  1.0000
  C   C67       1.0  0.81390  0.23202  0.32553  1.0000
  C   C68       1.0  0.79714  0.25076  0.33473  1.0000
  C   C69       1.0  0.76158  0.23328  0.34217  1.0000
  C   C70       1.0  0.81300  0.17741  0.32338  1.0000
  C   C71       1.0  0.80509  0.15114  0.38556  1.0000
  C   C72       1.0  0.82293  0.13339  0.38627  1.0000
  C   C73       1.0  0.84924  0.14097  0.32438  1.0000
  C   C74       1.0  0.85669  0.16686  0.26114  1.0000
  C   C75       1.0  0.83918  0.18498  0.26123  1.0000
  C   C76       1.0  0.70673  0.18124  0.34994  1.0000
  C   C77       1.0  0.68511  0.15948  0.28256  1.0000
  C   C78       1.0  0.65015  0.14802  0.28458  1.0000
  C   C79       1.0  0.63570  0.15720  0.35515  1.0000
  C   C80       1.0  0.65734  0.17813  0.42383  1.0000
  C   C81       1.0  0.69222  0.18985  0.42144  1.0000
  C   C82       1.0  0.81476  0.28657  0.33930  1.0000
  C   C83       1.0  0.81312  0.30268  0.41811  1.0000
  C   C84       1.0  0.82369  0.33735  0.41822  1.0000
  C   C85       1.0  0.83549  0.35692  0.33913  1.0000
  C   C86       1.0  0.83857  0.34088  0.26147  1.0000
  C   C87       1.0  0.82839  0.30621  0.26142  1.0000
  H   H37       1.0  0.63543  0.13370  0.23250  1.0000
  H   H38       1.0  0.69494  0.15375  0.22827  1.0000
  H   H39       1.0  0.64834  0.18692  0.47348  1.0000
  H   H40       1.0  0.70721  0.20613  0.47037  1.0000
  H   H41       1.0  0.80229  0.28886  0.47473  1.0000
  H   H42       1.0  0.81996  0.34739  0.47532  1.0000
  H   H43       1.0  0.82881  0.29499  0.20261  1.0000
  H   H44       1.0  0.84699  0.35396  0.20282  1.0000
  H   H45       1.0  0.84554  0.20361  0.21463  1.0000
  H   H46       1.0  0.87560  0.17341  0.21529  1.0000
  H   H47       1.0  0.81597  0.11441  0.43200  1.0000
  H   H48       1.0  0.78666  0.14512  0.43258  1.0000
  H   H49       1.0  0.74619  0.15349  0.33183  1.0000
  H   H50       1.0  0.74931  0.24685  0.34759  1.0000
  H   H51       1.0  0.83979  0.24471  0.32312  1.0000
  C   C88       1.0  0.79305  0.54547  0.34195  1.0000
  C   C89       1.0  0.81133  0.58108  0.33394  1.0000
  C   C90       1.0  0.79458  0.60012  0.32778  1.0000
  C   C91       1.0  0.75870  0.58254  0.32745  1.0000
  C   C92       1.0  0.73994  0.54700  0.33553  1.0000
  C   C93       1.0  0.75738  0.52889  0.34248  1.0000
  C   C94       1.0  0.81329  0.63625  0.32676  1.0000
  C   C95       1.0  0.83940  0.65443  0.38945  1.0000
  C   C96       1.0  0.85698  0.69001  0.39124  1.0000
  C   C97       1.0  0.84939  0.70890  0.32990  1.0000
  C   C98       1.0  0.82366  0.69063  0.26614  1.0000
  C   C99       1.0  0.80571  0.65502  0.26516  1.0000
  C   C100      1.0  0.80935  0.52599  0.35061  1.0000
  C   C101      1.0  0.83102  0.52606  0.28306  1.0000
  C   C102      1.0  0.84237  0.50247  0.28483  1.0000
  C   C103      1.0  0.83307  0.47872  0.35515  1.0000
  C   C104      1.0  0.81218  0.47945  0.42391  1.0000
  C   C105      1.0  0.80059  0.50272  0.42180  1.0000
  C   C106      1.0  0.70414  0.52887  0.33990  1.0000
  C   C107      1.0  0.68797  0.51114  0.41866  1.0000
  C   C108      1.0  0.65328  0.48715  0.41870  1.0000
  C   C109      1.0  0.63373  0.47949  0.33959  1.0000
  C   C110      1.0  0.64985  0.49853  0.26191  1.0000
  C   C111      1.0  0.68455  0.52295  0.26196  1.0000
  H   H52       1.0  0.85668  0.50208  0.23271  1.0000
  H   H53       1.0  0.83691  0.54178  0.22906  1.0000
  H   H54       1.0  0.80323  0.46154  0.47326  1.0000
  H   H55       1.0  0.78431  0.50142  0.47074  1.0000
  H   H56       1.0  0.70174  0.51417  0.47542  1.0000
  H   H57       1.0  0.64314  0.47351  0.47592  1.0000
  H   H58       1.0  0.69583  0.53454  0.20314  1.0000
  H   H59       1.0  0.63679  0.49394  0.20325  1.0000
  H   H60       1.0  0.78719  0.64288  0.21822  1.0000
  H   H61       1.0  0.81711  0.70310  0.22064  1.0000
  H   H62       1.0  0.87586  0.70194  0.43730  1.0000
  H   H63       1.0  0.84540  0.64188  0.43610  1.0000
  H   H64       1.0  0.83721  0.59330  0.33424  1.0000
  H   H65       1.0  0.74377  0.50301  0.34727  1.0000
  H   H66       1.0  0.74603  0.59576  0.32547  1.0000
  N   N7        1.0  0.19207  0.09952  0.40430  1.0000
  C   C112      1.0  0.22625  0.11730  0.41139  1.0000
  H   H67       1.0  0.23679  0.12498  0.47320  1.0000
  N   N8        1.0  0.89144  0.09287  0.39434  1.0000
  C   C113      1.0  0.87384  0.10942  0.40170  1.0000
  H   H68       1.0  0.86622  0.11228  0.46360  1.0000
  N   N9        1.0  0.89643  0.79897  0.40289  1.0000
  C   C114      1.0  0.88018  0.76476  0.40898  1.0000
  H   H69       1.0  0.87702  0.75399  0.47059  1.0000
  C   C115      1.0  0.60155  0.14993  0.35134  1.0000
  C   C116      1.0  0.54011  0.15000  0.33889  1.0000
  N   N10       1.0  0.55004  0.14119  0.41512  1.0000
  C   C117      1.0  0.57905  0.14001  0.42530  1.0000
  C   C118      1.0  0.58520  0.12982  0.50728  1.0000
  O   O7        1.0  0.57517  0.13678  0.57539  1.0000
  O   O8        1.0  0.59027  0.10574  0.51452  1.0000
  H   H70       1.0  0.59461  0.09585  0.46961  1.0000
  C   C119      1.0  0.84021  0.45174  0.35104  1.0000
  C   C120      1.0  0.84048  0.39040  0.33774  1.0000
  N   N11       1.0  0.84907  0.40897  0.41427  1.0000
  C   C121      1.0  0.85009  0.43906  0.42488  1.0000
  C   C122      1.0  0.86012  0.45521  0.50717  1.0000
  O   O9        1.0  0.85256  0.43801  0.57496  1.0000
  O   O10       1.0  0.88414  0.48438  0.51487  1.0000
  H   H71       1.0  0.89423  0.49863  0.47013  1.0000
  C   C123      1.0  0.53888  0.38955  0.35179  1.0000
  C   C124      1.0  0.60019  0.45111  0.33824  1.0000
  N   N12       1.0  0.58161  0.44123  0.41474  1.0000
  C   C125      1.0  0.55150  0.41218  0.42546  1.0000
  C   C126      1.0  0.53534  0.40608  0.50769  1.0000
  O   O11       1.0  0.55247  0.41631  0.57552  1.0000
  O   O12       1.0  0.50613  0.40080  0.51535  1.0000
  H   H72       1.0  0.49178  0.39630  0.47066  1.0000
