data_image0
_chemical_formula_structural       C4H2C4H2N2C4H2C4H2N2C4H2C4H2N2C3H2C2H3CHC3H2C2H3CHC3H2C2H3CHC3H2C2H3CHC3H2C2H3CHC3H2C2H3CHC2HC2HN2C2HC2HN2C2HC2HN2C3NC2NC2HCHC3NC2NC2HCHC3NC2NC2HCHC3NC2NC2HCHC3NC2NC2HCHC3NC2NC2HCH
_chemical_formula_sum              "C120 H66 N24"
_cell_length_a       31.9192
_cell_length_b       31.9192
_cell_length_c       15.0362
_cell_angle_alpha    90
_cell_angle_beta     90
_cell_angle_gamma    120

_space_group_name_H-M_alt    "P 1"
_space_group_IT_number       1

loop_
  _space_group_symop_operation_xyz
  'x, y, z'

loop_
  _atom_site_type_symbol
  _atom_site_label
  _atom_site_symmetry_multiplicity
  _atom_site_fract_x
  _atom_site_fract_y
  _atom_site_fract_z
  _atom_site_occupancy
  C   C1        1.0  0.97246  0.48808  0.32996  1.0000
  C   C2        1.0  0.87010  0.44545  0.33599  1.0000
  C   C3        1.0  0.89098  0.41584  0.34300  1.0000
  C   C4        1.0  0.94165  0.43784  0.34714  1.0000
  H   H1        1.0  0.95558  0.41576  0.35945  1.0000
  H   H2        1.0  0.83325  0.43015  0.33724  1.0000
  C   C5        1.0  0.02389  0.50952  0.32996  1.0000
  C   C6        1.0  0.05470  0.55976  0.34714  1.0000
  C   C7        1.0  0.10537  0.58177  0.34299  1.0000
  C   C8        1.0  0.12625  0.55215  0.33603  1.0000
  H   H3        1.0  0.04077  0.58184  0.35945  1.0000
  H   H4        1.0  0.16310  0.56746  0.33730  1.0000
  N   N1        1.0  0.13200  0.63065  0.34438  1.0000
  N   N2        1.0  0.86435  0.36696  0.34440  1.0000
  C   C9        1.0  0.50891  0.48380  0.32992  1.0000
  C   C10       1.0  0.55156  0.42408  0.33596  1.0000
  C   C11       1.0  0.58116  0.47458  0.34301  1.0000
  C   C12       1.0  0.55915  0.50323  0.34706  1.0000
  H   H5        1.0  0.58121  0.53924  0.35950  1.0000
  H   H6        1.0  0.56686  0.40253  0.33731  1.0000
  C   C13       1.0  0.48746  0.51378  0.32988  1.0000
  C   C14       1.0  0.43722  0.49435  0.34700  1.0000
  C   C15       1.0  0.41521  0.52300  0.34287  1.0000
  C   C16       1.0  0.44482  0.57350  0.33582  1.0000
  H   H7        1.0  0.41516  0.45835  0.35948  1.0000
  H   H8        1.0  0.42951  0.59504  0.33716  1.0000
  N   N3        1.0  0.36633  0.50074  0.34430  1.0000
  N   N4        1.0  0.63004  0.49683  0.34442  1.0000
  C   C17       1.0  0.51320  0.02451  0.32985  1.0000
  C   C18       1.0  0.57291  0.12687  0.33586  1.0000
  C   C19       1.0  0.52240  0.10597  0.34291  1.0000
  C   C20       1.0  0.49376  0.05531  0.34700  1.0000
  H   H9        1.0  0.45776  0.04136  0.35948  1.0000
  H   H10       1.0  0.59444  0.16372  0.33719  1.0000
  C   C21       1.0  0.48322  0.97308  0.32988  1.0000
  C   C22       1.0  0.50266  0.94228  0.34703  1.0000
  C   C23       1.0  0.47402  0.89162  0.34296  1.0000
  C   C24       1.0  0.42352  0.87071  0.33588  1.0000
  H   H11       1.0  0.53866  0.95623  0.35949  1.0000
  H   H12       1.0  0.40198  0.83386  0.33721  1.0000
  N   N5        1.0  0.49629  0.86500  0.34438  1.0000
  N   N6        1.0  0.50013  0.13259  0.34434  1.0000
  C   C25       1.0  0.28861  0.49563  0.32022  1.0000
  C   C26       1.0  0.25971  0.49991  0.25362  1.0000
  C   C27       1.0  0.21102  0.48567  0.26914  1.0000
  H   H13       1.0  0.19293  0.49251  0.22020  1.0000
  H   H14       1.0  0.27409  0.51418  0.19264  1.0000
  C   C28       1.0  0.28286  0.43645  0.04139  1.0000
  C   C29       1.0  0.23501  0.42528  0.05883  1.0000
  H   H15       1.0  0.30303  0.43306  0.09072  1.0000
  H   H16       1.0  0.22051  0.41368  0.12070  1.0000
  H   H17       1.0  0.17252  0.42232  0.00471  1.0000
  C   C30       1.0  0.33846  0.51596  0.30403  1.0000
  H   H18       1.0  0.35354  0.53974  0.25209  1.0000
  C   C31       1.0  0.50139  0.79239  0.32025  1.0000
  C   C32       1.0  0.49710  0.75921  0.25363  1.0000
  C   C33       1.0  0.51132  0.72475  0.26913  1.0000
  H   H19       1.0  0.50449  0.69984  0.22016  1.0000
  H   H20       1.0  0.48283  0.75933  0.19264  1.0000
  C   C34       1.0  0.56058  0.84577  0.04143  1.0000
  C   C35       1.0  0.57174  0.80909  0.05884  1.0000
  H   H21       1.0  0.56399  0.86933  0.09076  1.0000
  H   H22       1.0  0.58334  0.80617  0.12070  1.0000
  H   H23       1.0  0.57468  0.74955  0.00469  1.0000
  C   C36       1.0  0.48107  0.82192  0.30407  1.0000
  H   H24       1.0  0.45729  0.81323  0.25212  1.0000
  C   C37       1.0  0.20460  0.70834  0.32024  1.0000
  C   C38       1.0  0.23776  0.73724  0.25360  1.0000
  C   C39       1.0  0.27222  0.78592  0.26908  1.0000
  H   H25       1.0  0.29713  0.80399  0.22011  1.0000
  H   H26       1.0  0.23765  0.72284  0.19263  1.0000
  C   C40       1.0  0.15125  0.71420  0.04143  1.0000
  C   C41       1.0  0.18794  0.76206  0.05882  1.0000
  H   H27       1.0  0.12770  0.69405  0.09077  1.0000
  H   H28       1.0  0.19086  0.77657  0.12067  1.0000
  H   H29       1.0  0.24747  0.82454  0.00463  1.0000
  C   C42       1.0  0.17511  0.65848  0.30413  1.0000
  H   H30       1.0  0.18376  0.64340  0.25213  1.0000
  C   C43       1.0  0.70775  0.50196  0.32030  1.0000
  C   C44       1.0  0.73665  0.49770  0.25366  1.0000
  C   C45       1.0  0.78534  0.51196  0.26914  1.0000
  H   H31       1.0  0.80343  0.50513  0.22018  1.0000
  H   H32       1.0  0.72226  0.48342  0.19268  1.0000
  C   C46       1.0  0.71357  0.56115  0.04149  1.0000
  C   C47       1.0  0.76144  0.57235  0.05887  1.0000
  H   H33       1.0  0.69342  0.56454  0.09083  1.0000
  H   H34       1.0  0.77595  0.58395  0.12072  1.0000
  H   H35       1.0  0.82393  0.57534  0.00468  1.0000
  C   C48       1.0  0.65789  0.48157  0.30419  1.0000
  H   H36       1.0  0.64281  0.45783  0.25218  1.0000
  C   C49       1.0  0.49503  0.20519  0.32023  1.0000
  C   C50       1.0  0.49930  0.23837  0.25362  1.0000
  C   C51       1.0  0.48507  0.27282  0.26913  1.0000
  H   H37       1.0  0.49190  0.29774  0.22018  1.0000
  H   H38       1.0  0.51358  0.23826  0.19264  1.0000
  C   C52       1.0  0.43584  0.15179  0.04141  1.0000
  C   C53       1.0  0.42467  0.18847  0.05883  1.0000
  H   H39       1.0  0.43244  0.12823  0.09074  1.0000
  H   H40       1.0  0.41308  0.19138  0.12070  1.0000
  H   H41       1.0  0.42172  0.24801  0.00469  1.0000
  C   C54       1.0  0.51536  0.17568  0.30406  1.0000
  H   H42       1.0  0.53914  0.18438  0.25211  1.0000
  C   C55       1.0  0.79176  0.28926  0.32027  1.0000
  C   C56       1.0  0.75860  0.26035  0.25364  1.0000
  C   C57       1.0  0.72416  0.21166  0.26912  1.0000
  H   H43       1.0  0.69925  0.19358  0.22014  1.0000
  H   H44       1.0  0.75871  0.27475  0.19266  1.0000
  C   C58       1.0  0.84512  0.28342  0.04146  1.0000
  C   C59       1.0  0.80846  0.23556  0.05885  1.0000
  H   H45       1.0  0.86867  0.30358  0.09080  1.0000
  H   H46       1.0  0.80554  0.22104  0.12070  1.0000
  H   H47       1.0  0.74895  0.17306  0.00465  1.0000
  C   C60       1.0  0.82124  0.33912  0.30416  1.0000
  H   H48       1.0  0.81258  0.35420  0.25216  1.0000
  C   C61       1.0  0.94938  0.51576  0.31410  1.0000
  C   C62       1.0  0.89922  0.49579  0.32484  1.0000
  H   H49       1.0  0.96891  0.55166  0.29861  1.0000
  C   C63       1.0  0.09714  0.50181  0.32494  1.0000
  C   C64       1.0  0.04698  0.48185  0.31407  1.0000
  H   H50       1.0  0.02745  0.44593  0.29868  1.0000
  N   N7        1.0  0.11803  0.47409  0.31814  1.0000
  N   N8        1.0  0.87833  0.52351  0.31805  1.0000
  C   C65       1.0  0.48124  0.43303  0.31406  1.0000
  C   C66       1.0  0.50121  0.40285  0.32485  1.0000
  H   H51       1.0  0.44533  0.41666  0.29861  1.0000
  C   C67       1.0  0.49516  0.59473  0.32478  1.0000
  C   C68       1.0  0.51513  0.56454  0.31396  1.0000
  H   H52       1.0  0.55105  0.58093  0.29862  1.0000
  N   N9        1.0  0.52288  0.64334  0.31803  1.0000
  N   N10       1.0  0.47350  0.35423  0.31808  1.0000
  C   C69       1.0  0.56395  0.04761  0.31388  1.0000
  C   C70       1.0  0.59414  0.09777  0.32473  1.0000
  H   H53       1.0  0.58035  0.02807  0.29857  1.0000
  C   C71       1.0  0.40227  0.89981  0.32475  1.0000
  C   C72       1.0  0.43245  0.94998  0.31402  1.0000
  H   H54       1.0  0.41607  0.96951  0.29856  1.0000
  N   N11       1.0  0.35366  0.87891  0.31799  1.0000
  N   N12       1.0  0.64275  0.11866  0.31799  1.0000
  C   C73       1.0  0.19140  0.47216  0.35556  1.0000
  C   C74       1.0  0.21939  0.46623  0.42237  1.0000
  C   C75       1.0  0.26726  0.47619  0.40396  1.0000
  N   N13       1.0  0.29287  0.47157  0.47198  1.0000
  C   C76       1.0  0.27499  0.45659  0.55498  1.0000
  C   C77       1.0  0.22707  0.44587  0.57277  1.0000
  N   N14       1.0  0.20166  0.45143  0.50605  1.0000
  C   C78       1.0  0.30294  0.45212  0.62281  1.0000
  C   C79       1.0  0.20714  0.43021  0.65811  1.0000
  H   H55       1.0  0.33766  0.46008  0.61043  1.0000
  C   C80       1.0  0.15020  0.47516  0.37812  1.0000
  H   H56       1.0  0.14836  0.48580  0.44170  1.0000
  C   C81       1.0  0.52483  0.71862  0.35554  1.0000
  C   C82       1.0  0.53077  0.75255  0.42237  1.0000
  C   C83       1.0  0.52082  0.79046  0.40398  1.0000
  N   N15       1.0  0.52545  0.82069  0.47202  1.0000
  C   C84       1.0  0.54043  0.81778  0.55500  1.0000
  C   C85       1.0  0.55114  0.78057  0.57277  1.0000
  N   N16       1.0  0.54557  0.74960  0.50604  1.0000
  C   C86       1.0  0.54491  0.85019  0.62285  1.0000
  C   C87       1.0  0.56680  0.77628  0.65811  1.0000
  H   H57       1.0  0.53696  0.87697  0.61049  1.0000
  C   C88       1.0  0.52184  0.67442  0.37806  1.0000
  H   H58       1.0  0.51113  0.66195  0.44162  1.0000
  C   C89       1.0  0.27836  0.80556  0.35548  1.0000
  C   C90       1.0  0.24444  0.77759  0.42233  1.0000
  C   C91       1.0  0.20654  0.72972  0.40396  1.0000
  N   N17       1.0  0.17632  0.70412  0.47202  1.0000
  C   C92       1.0  0.17924  0.72203  0.55500  1.0000
  C   C93       1.0  0.21644  0.76995  0.57274  1.0000
  N   N18       1.0  0.24740  0.79535  0.50599  1.0000
  C   C94       1.0  0.14684  0.69411  0.62286  1.0000
  C   C95       1.0  0.22073  0.78991  0.65807  1.0000
  H   H59       1.0  0.12006  0.65937  0.61052  1.0000
  C   C96       1.0  0.32258  0.84676  0.37800  1.0000
  H   H60       1.0  0.33506  0.84860  0.44157  1.0000
  C   C97       1.0  0.80498  0.52547  0.35554  1.0000
  C   C98       1.0  0.77700  0.53140  0.42238  1.0000
  C   C99       1.0  0.72912  0.52141  0.40402  1.0000
  N   N19       1.0  0.70351  0.52602  0.47208  1.0000
  C   C100      1.0  0.72141  0.54101  0.55505  1.0000
  C   C101      1.0  0.76935  0.55176  0.57279  1.0000
  N   N20       1.0  0.79475  0.54621  0.50605  1.0000
  C   C102      1.0  0.69348  0.54547  0.62292  1.0000
  C   C103      1.0  0.78930  0.56743  0.65812  1.0000
  H   H61       1.0  0.65875  0.53749  0.61058  1.0000
  C   C104      1.0  0.84619  0.52247  0.37807  1.0000
  H   H62       1.0  0.84804  0.51184  0.44164  1.0000
  C   C105      1.0  0.47156  0.27894  0.35554  1.0000
  C   C106      1.0  0.46562  0.24501  0.42236  1.0000
  C   C107      1.0  0.47559  0.20711  0.40397  1.0000
  N   N21       1.0  0.47097  0.17688  0.47200  1.0000
  C   C108      1.0  0.45599  0.17979  0.55499  1.0000
  C   C109      1.0  0.44527  0.21699  0.57277  1.0000
  N   N22       1.0  0.45083  0.24796  0.50603  1.0000
  C   C110      1.0  0.45151  0.14738  0.62283  1.0000
  C   C111      1.0  0.42961  0.22127  0.65811  1.0000
  H   H63       1.0  0.45947  0.12061  0.61047  1.0000
  C   C112      1.0  0.47457  0.32315  0.37808  1.0000
  H   H64       1.0  0.48521  0.33563  0.44166  1.0000
  C   C113      1.0  0.71803  0.19202  0.35552  1.0000
  C   C114      1.0  0.75194  0.22000  0.42236  1.0000
  C   C115      1.0  0.78983  0.26788  0.40399  1.0000
  N   N23       1.0  0.82005  0.29349  0.47205  1.0000
  C   C116      1.0  0.81713  0.27558  0.55503  1.0000
  C   C117      1.0  0.77995  0.22765  0.57277  1.0000
  N   N24       1.0  0.74900  0.20225  0.50601  1.0000
  C   C118      1.0  0.84953  0.30351  0.62289  1.0000
  C   C119      1.0  0.77567  0.20770  0.65809  1.0000
  H   H65       1.0  0.87629  0.33825  0.61056  1.0000
  C   C120      1.0  0.67383  0.15079  0.37803  1.0000
  H   H66       1.0  0.66136  0.14902  0.44158  1.0000
