data_image0
_chemical_formula_structural       C10H5C6H3N2C10H5C6H3N2C3H2CHC3H2CHC3H2CHC8H7NC8H7NC4H3CH3CHC4H3CH3CHC4H3CH3CH
_chemical_formula_sum              "C78 H60 N6"
_cell_length_a       37.3126
_cell_length_b       37.2829
_cell_length_c       14.6504
_cell_angle_alpha    90
_cell_angle_beta     90
_cell_angle_gamma    120.023

_space_group_name_H-M_alt    "P 1"
_space_group_IT_number       1

loop_
  _space_group_symop_operation_xyz
  'x, y, z'

loop_
  _atom_site_type_symbol
  _atom_site_label
  _atom_site_symmetry_multiplicity
  _atom_site_fract_x
  _atom_site_fract_y
  _atom_site_fract_z
  _atom_site_occupancy
  C   C1        1.0  0.39422  0.63262  0.34273  1.0000
  C   C2        1.0  0.26161  0.63496  0.35083  1.0000
  C   C3        1.0  0.37997  0.59585  0.29069  1.0000
  C   C4        1.0  0.40085  0.57305  0.29157  1.0000
  C   C5        1.0  0.43730  0.58649  0.34315  1.0000
  C   C6        1.0  0.40576  0.83471  0.30270  1.0000
  C   C7        1.0  0.38354  0.79105  0.30083  1.0000
  C   C8        1.0  0.23897  0.64999  0.30196  1.0000
  C   C9        1.0  0.19533  0.62917  0.30373  1.0000
  C   C10       1.0  0.17243  0.59195  0.35293  1.0000
  H   H1        1.0  0.38925  0.54648  0.25369  1.0000
  H   H2        1.0  0.35805  0.77668  0.25956  1.0000
  H   H3        1.0  0.39543  0.85034  0.26341  1.0000
  H   H4        1.0  0.25409  0.67629  0.26333  1.0000
  H   H5        1.0  0.18029  0.64129  0.26794  1.0000
  C   C11       1.0  0.30626  0.65658  0.34964  1.0000
  C   C12       1.0  0.32971  0.70046  0.35250  1.0000
  C   C13       1.0  0.37357  0.72270  0.35035  1.0000
  C   C14       1.0  0.39403  0.69937  0.34602  1.0000
  C   C15       1.0  0.37238  0.65543  0.34442  1.0000
  C   C16       1.0  0.32850  0.63494  0.34590  1.0000
  H   H6        1.0  0.42563  0.71489  0.34126  1.0000
  H   H7        1.0  0.31224  0.60327  0.34454  1.0000
  H   H8        1.0  0.35416  0.58527  0.25072  1.0000
  N   N1        1.0  0.13119  0.57452  0.35557  1.0000
  N   N2        1.0  0.45472  0.56264  0.34551  1.0000
  C   C17       1.0  0.64166  0.39199  0.34859  1.0000
  C   C18       1.0  0.77365  0.38858  0.35700  1.0000
  C   C19       1.0  0.65599  0.42846  0.29547  1.0000
  C   C20       1.0  0.63532  0.45144  0.29551  1.0000
  C   C21       1.0  0.59906  0.43857  0.34747  1.0000
  C   C22       1.0  0.62899  0.18910  0.30954  1.0000
  C   C23       1.0  0.65158  0.23277  0.30827  1.0000
  C   C24       1.0  0.79591  0.37351  0.30681  1.0000
  C   C25       1.0  0.83954  0.39412  0.30770  1.0000
  C   C26       1.0  0.86282  0.43110  0.35751  1.0000
  H   H9        1.0  0.64694  0.47776  0.25672  1.0000
  H   H10       1.0  0.67758  0.24700  0.26852  1.0000
  H   H11       1.0  0.63939  0.17323  0.27124  1.0000
  H   H12       1.0  0.78051  0.34736  0.26780  1.0000
  H   H13       1.0  0.85430  0.38198  0.27088  1.0000
  C   C27       1.0  0.72902  0.36723  0.35626  1.0000
  C   C28       1.0  0.70531  0.32336  0.35897  1.0000
  C   C29       1.0  0.66144  0.30134  0.35638  1.0000
  C   C30       1.0  0.64129  0.32499  0.35194  1.0000
  C   C31       1.0  0.66322  0.36892  0.35072  1.0000
  C   C32       1.0  0.70707  0.38916  0.35256  1.0000
  H   H14       1.0  0.60971  0.30975  0.34667  1.0000
  H   H15       1.0  0.72353  0.42083  0.35125  1.0000
  H   H16       1.0  0.68167  0.43862  0.25521  1.0000
  N   N3        1.0  0.90403  0.44823  0.35869  1.0000
  N   N4        1.0  0.58197  0.46272  0.34833  1.0000
  C   C33       1.0  0.50477  0.54268  0.36198  1.0000
  C   C34       1.0  0.50326  0.52045  0.28277  1.0000
  C   C35       1.0  0.51717  0.49178  0.28415  1.0000
  H   H17       1.0  0.51512  0.47602  0.22523  1.0000
  H   H18       1.0  0.49212  0.52504  0.22260  1.0000
  C   C36       1.0  0.49293  0.57248  0.35387  1.0000
  H   H19       1.0  0.51482  0.60205  0.35979  1.0000
  C   C37       1.0  0.48876  0.96889  0.34702  1.0000
  C   C38       1.0  0.51139  0.99087  0.26931  1.0000
  C   C39       1.0  0.54031  0.03328  0.27397  1.0000
  H   H20       1.0  0.55597  0.04787  0.21555  1.0000
  H   H21       1.0  0.50694  0.97622  0.20763  1.0000
  C   C40       1.0  0.45919  0.92749  0.33360  1.0000
  H   H22       1.0  0.43349  0.92128  0.30050  1.0000
  C   C41       1.0  0.06108  0.52460  0.37022  1.0000
  C   C42       1.0  0.04059  0.52681  0.29132  1.0000
  C   C43       1.0  0.99812  0.51328  0.29276  1.0000
  H   H23       1.0  0.98457  0.51578  0.23404  1.0000
  H   H24       1.0  0.05643  0.53819  0.23133  1.0000
  C   C44       1.0  0.10264  0.53625  0.36203  1.0000
  H   H25       1.0  0.11011  0.51416  0.36602  1.0000
  C   C45       1.0  0.39640  0.76730  0.35241  1.0000
  C   C46       1.0  0.45164  0.62294  0.39578  1.0000
  C   C47       1.0  0.43057  0.64550  0.39536  1.0000
  C   C48       1.0  0.43273  0.78944  0.40581  1.0000
  C   C49       1.0  0.45499  0.83313  0.40772  1.0000
  C   C50       1.0  0.44186  0.85657  0.35661  1.0000
  C   C51       1.0  0.19463  0.57681  0.40256  1.0000
  C   C52       1.0  0.23827  0.59786  0.40131  1.0000
  H   H26       1.0  0.47702  0.63280  0.43688  1.0000
  H   H27       1.0  0.44152  0.67096  0.43668  1.0000
  H   H28       1.0  0.44306  0.77387  0.44544  1.0000
  H   H29       1.0  0.48095  0.84781  0.44758  1.0000
  H   H30       1.0  0.17918  0.55076  0.44176  1.0000
  H   H31       1.0  0.25291  0.58622  0.44006  1.0000
  H   H32       1.0  0.31443  0.71671  0.35929  1.0000
  N   N5        1.0  0.46481  0.89794  0.36170  1.0000
  C   C53       1.0  0.63829  0.25668  0.35794  1.0000
  C   C54       1.0  0.58465  0.40242  0.40122  1.0000
  C   C55       1.0  0.60549  0.37963  0.40154  1.0000
  C   C56       1.0  0.60105  0.23463  0.40852  1.0000
  C   C57       1.0  0.57830  0.19095  0.40946  1.0000
  C   C58       1.0  0.59209  0.16745  0.36087  1.0000
  C   C59       1.0  0.84098  0.44629  0.40834  1.0000
  C   C60       1.0  0.79733  0.42548  0.40787  1.0000
  H   H33       1.0  0.55937  0.39291  0.44245  1.0000
  H   H34       1.0  0.59448  0.35433  0.44339  1.0000
  H   H35       1.0  0.59029  0.25024  0.44672  1.0000
  H   H36       1.0  0.55162  0.17632  0.44704  1.0000
  H   H37       1.0  0.85669  0.47223  0.44780  1.0000
  H   H38       1.0  0.78294  0.43715  0.44735  1.0000
  H   H39       1.0  0.72044  0.30697  0.36572  1.0000
  N   N6        1.0  0.56866  0.12612  0.36345  1.0000
  C   C61       1.0  0.53371  0.48482  0.36436  1.0000
  C   C62       1.0  0.53551  0.50676  0.44584  1.0000
  C   C63       1.0  0.52104  0.53598  0.44458  1.0000
  C   C64       1.0  0.55234  0.49949  0.53257  1.0000
  H   H40       1.0  0.56301  0.47723  0.52651  1.0000
  H   H41       1.0  0.52847  0.48774  0.58523  1.0000
  H   H42       1.0  0.57875  0.52846  0.55597  1.0000
  C   C65       1.0  0.52247  0.55867  0.53036  1.0000
  H   H43       1.0  0.50977  0.57925  0.52353  1.0000
  H   H44       1.0  0.55445  0.57765  0.55301  1.0000
  H   H45       1.0  0.50463  0.53658  0.58397  1.0000
  C   C66       1.0  0.54431  0.45402  0.36112  1.0000
  H   H46       1.0  0.52209  0.42497  0.37209  1.0000
  C   C67       1.0  0.54758  0.05549  0.35635  1.0000
  C   C68       1.0  0.52542  0.03395  0.43662  1.0000
  C   C69       1.0  0.49528  0.99049  0.43153  1.0000
  C   C70       1.0  0.53363  0.05619  0.52616  1.0000
  H   H47       1.0  0.55824  0.08844  0.52412  1.0000
  H   H48       1.0  0.54285  0.04100  0.57703  1.0000
  H   H49       1.0  0.50572  0.05587  0.54959  1.0000
  C   C71       1.0  0.47068  0.96823  0.51457  1.0000
  H   H50       1.0  0.44776  0.93581  0.50310  1.0000
  H   H51       1.0  0.45383  0.98316  0.53963  1.0000
  H   H52       1.0  0.49135  0.96893  0.56807  1.0000
  C   C72       1.0  0.57773  0.09725  0.35340  1.0000
  H   H53       1.0  0.60678  0.10445  0.34103  1.0000
  C   C73       1.0  0.97447  0.49647  0.37271  1.0000
  C   C74       1.0  0.99439  0.49399  0.45388  1.0000
  C   C75       1.0  0.03798  0.50804  0.45254  1.0000
  C   C76       1.0  0.97020  0.47697  0.54043  1.0000
  H   H54       1.0  0.93740  0.46685  0.53460  1.0000
  H   H55       1.0  0.98266  0.50055  0.59371  1.0000
  H   H56       1.0  0.97220  0.45012  0.56283  1.0000
  C   C77       1.0  0.05902  0.50584  0.53796  1.0000
  H   H57       1.0  0.09221  0.51812  0.53100  1.0000
  H   H58       1.0  0.04555  0.47369  0.55984  1.0000
  H   H59       1.0  0.05511  0.52366  0.59214  1.0000
  C   C78       1.0  0.93314  0.48603  0.36934  1.0000
  H   H60       1.0  0.92647  0.50850  0.37780  1.0000
