data_image0
_chemical_formula_structural       C16H16C16H16C16H16CNCHCHCNCHCHCNCHCHCNCHCHCNCHCHCNCHCHC3NC3NC5NC5NC36H26N4C3NC3NC5NC5NC36H26N4C3NC3NC5NC5NC36H26N4C2NHCHC2NHCHC2NHCHC2NHCHC2NHCHC2NHCH
_chemical_formula_sum              "C240 H150 N36"
_cell_length_a       67.4157
_cell_length_b       67.4157
_cell_length_c       14.8744
_cell_angle_alpha    89.8352
_cell_angle_beta     90.1648
_cell_angle_gamma    120

_space_group_name_H-M_alt    "P 1"
_space_group_IT_number       1

loop_
  _space_group_symop_operation_xyz
  'x, y, z'

loop_
  _atom_site_type_symbol
  _atom_site_label
  _atom_site_symmetry_multiplicity
  _atom_site_fract_x
  _atom_site_fract_y
  _atom_site_fract_z
  _atom_site_occupancy
  C   C1        1.0  0.96968  0.59167  0.27949  1.0000
  C   C2        1.0  0.95103  0.59561  0.27945  1.0000
  C   C3        1.0  0.88279  0.58899  0.29987  1.0000
  C   C4        1.0  0.90276  0.58725  0.29826  1.0000
  C   C5        1.0  0.96831  0.47385  0.27931  1.0000
  C   C6        1.0  0.94974  0.45123  0.27920  1.0000
  C   C7        1.0  0.91809  0.39993  0.29635  1.0000
  C   C8        1.0  0.89837  0.37802  0.29419  1.0000
  C   C9        1.0  0.12560  0.53782  0.27918  1.0000
  C   C10       1.0  0.10712  0.54200  0.27920  1.0000
  C   C11       1.0  0.17361  0.54540  0.29871  1.0000
  C   C12       1.0  0.19334  0.54326  0.30027  1.0000
  C   C13       1.0  0.10863  0.65965  0.27922  1.0000
  C   C14       1.0  0.12734  0.68219  0.27914  1.0000
  C   C15       1.0  0.17950  0.75514  0.29381  1.0000
  C   C16       1.0  0.15957  0.73339  0.29596  1.0000
  H   H1        1.0  0.18093  0.76669  0.24579  1.0000
  H   H2        1.0  0.14696  0.72996  0.24988  1.0000
  H   H3        1.0  0.13451  0.68944  0.21862  1.0000
  H   H4        1.0  0.10267  0.65131  0.21926  1.0000
  H   H5        1.0  0.10062  0.54362  0.21909  1.0000
  H   H6        1.0  0.13170  0.53609  0.21854  1.0000
  H   H7        1.0  0.97425  0.48222  0.21933  1.0000
  H   H8        1.0  0.94265  0.44395  0.21862  1.0000
  H   H9        1.0  0.89716  0.36654  0.24650  1.0000
  H   H10       1.0  0.93077  0.40355  0.25061  1.0000
  H   H11       1.0  0.90356  0.57632  0.25282  1.0000
  H   H12       1.0  0.86989  0.57940  0.25558  1.0000
  H   H13       1.0  0.94492  0.59745  0.21882  1.0000
  H   H14       1.0  0.97625  0.59030  0.21939  1.0000
  H   H15       1.0  0.17304  0.55661  0.25367  1.0000
  H   H16       1.0  0.20634  0.55286  0.25642  1.0000
  C   C17       1.0  0.51191  0.47004  0.28165  1.0000
  C   C18       1.0  0.50797  0.44746  0.28162  1.0000
  C   C19       1.0  0.51459  0.38581  0.30200  1.0000
  C   C20       1.0  0.51634  0.40752  0.30048  1.0000
  C   C21       1.0  0.62969  0.58649  0.28101  1.0000
  C   C22       1.0  0.65232  0.59056  0.28068  1.0000
  C   C23       1.0  0.70363  0.61021  0.29741  1.0000
  C   C24       1.0  0.72554  0.61240  0.29501  1.0000
  C   C25       1.0  0.56576  0.67982  0.28134  1.0000
  C   C26       1.0  0.56158  0.65715  0.28136  1.0000
  C   C27       1.0  0.55820  0.72023  0.30087  1.0000
  C   C28       1.0  0.56033  0.74210  0.30248  1.0000
  C   C29       1.0  0.44397  0.54101  0.28092  1.0000
  C   C30       1.0  0.42142  0.53716  0.28062  1.0000
  C   C31       1.0  0.34848  0.51636  0.29463  1.0000
  C   C32       1.0  0.37022  0.51816  0.29703  1.0000
  H   H17       1.0  0.33695  0.50629  0.24654  1.0000
  H   H18       1.0  0.37368  0.50904  0.25105  1.0000
  H   H19       1.0  0.41421  0.53717  0.22003  1.0000
  H   H20       1.0  0.45234  0.54347  0.22102  1.0000
  H   H21       1.0  0.55995  0.64911  0.22125  1.0000
  H   H22       1.0  0.56749  0.68772  0.22070  1.0000
  H   H23       1.0  0.62130  0.58416  0.22109  1.0000
  H   H24       1.0  0.65958  0.59085  0.22003  1.0000
  H   H25       1.0  0.73699  0.62272  0.24725  1.0000
  H   H26       1.0  0.69998  0.61932  0.25177  1.0000
  H   H27       1.0  0.52725  0.41931  0.25495  1.0000
  H   H28       1.0  0.52418  0.38255  0.25772  1.0000
  H   H29       1.0  0.50612  0.43958  0.22098  1.0000
  H   H30       1.0  0.51329  0.47806  0.22154  1.0000
  H   H31       1.0  0.54698  0.70851  0.25588  1.0000
  H   H32       1.0  0.55073  0.74556  0.25868  1.0000
  C   C33       1.0  0.63348  0.13385  0.28266  1.0000
  C   C34       1.0  0.65606  0.15250  0.28230  1.0000
  C   C35       1.0  0.71771  0.22075  0.30170  1.0000
  C   C36       1.0  0.69601  0.20078  0.30046  1.0000
  C   C37       1.0  0.51708  0.13525  0.28288  1.0000
  C   C38       1.0  0.51300  0.15380  0.28263  1.0000
  C   C39       1.0  0.49335  0.18544  0.29952  1.0000
  C   C40       1.0  0.49116  0.20515  0.29717  1.0000
  C   C41       1.0  0.42383  0.97804  0.28197  1.0000
  C   C42       1.0  0.44650  0.99652  0.28232  1.0000
  C   C43       1.0  0.38341  0.93003  0.30082  1.0000
  C   C44       1.0  0.36154  0.91030  0.30204  1.0000
  C   C45       1.0  0.56257  0.99498  0.28279  1.0000
  C   C46       1.0  0.56642  0.97629  0.28256  1.0000
  C   C47       1.0  0.58723  0.92413  0.29676  1.0000
  C   C48       1.0  0.58542  0.94407  0.29911  1.0000
  H   H33       1.0  0.59730  0.92273  0.24871  1.0000
  H   H34       1.0  0.59454  0.95670  0.25313  1.0000
  H   H35       1.0  0.56643  0.96914  0.22198  1.0000
  H   H36       1.0  0.56013  0.00098  0.22286  1.0000
  H   H37       1.0  0.45458  0.00306  0.22232  1.0000
  H   H38       1.0  0.41597  0.97199  0.22122  1.0000
  H   H39       1.0  0.51941  0.12927  0.22295  1.0000
  H   H40       1.0  0.51272  0.16086  0.22201  1.0000
  H   H41       1.0  0.48083  0.20634  0.24943  1.0000
  H   H42       1.0  0.48424  0.17273  0.25386  1.0000
  H   H43       1.0  0.68417  0.19995  0.25512  1.0000
  H   H44       1.0  0.72093  0.23363  0.25732  1.0000
  H   H45       1.0  0.66388  0.15857  0.22155  1.0000
  H   H46       1.0  0.62540  0.12725  0.22266  1.0000
  H   H47       1.0  0.39517  0.93062  0.25596  1.0000
  H   H48       1.0  0.35812  0.89732  0.25814  1.0000
  C   C49       1.0  0.26346  0.52726  0.27017  1.0000
  N   N1        1.0  0.28273  0.52723  0.29695  1.0000
  C   C50       1.0  0.24824  0.52714  0.33567  1.0000
  H   H49       1.0  0.26055  0.52782  0.20297  1.0000
  C   C51       1.0  0.22900  0.52850  0.31241  1.0000
  H   H50       1.0  0.22658  0.53087  0.24815  1.0000
  C   C52       1.0  0.57632  0.82825  0.27240  1.0000
  N   N2        1.0  0.57635  0.84752  0.29916  1.0000
  C   C53       1.0  0.57644  0.81307  0.33790  1.0000
  H   H51       1.0  0.57578  0.82487  0.20519  1.0000
  C   C54       1.0  0.57510  0.79251  0.31465  1.0000
  H   H52       1.0  0.57274  0.78780  0.25038  1.0000
  C   C55       1.0  0.27542  0.84018  0.27070  1.0000
  N   N3        1.0  0.25613  0.82089  0.29717  1.0000
  C   C56       1.0  0.29054  0.85536  0.33643  1.0000
  H   H53       1.0  0.27887  0.84313  0.20354  1.0000
  C   C57       1.0  0.31112  0.87462  0.31349  1.0000
  H   H54       1.0  0.31588  0.87710  0.24929  1.0000
  C   C58       1.0  0.81162  0.60341  0.27037  1.0000
  N   N4        1.0  0.79215  0.60296  0.29713  1.0000
  C   C59       1.0  0.82699  0.60368  0.33589  1.0000
  H   H55       1.0  0.81459  0.60314  0.20315  1.0000
  C   C60       1.0  0.84647  0.60283  0.31258  1.0000
  H   H56       1.0  0.84900  0.60075  0.24824  1.0000
  C   C61       1.0  0.50014  0.30024  0.27256  1.0000
  N   N5        1.0  0.50060  0.28119  0.29931  1.0000
  C   C62       1.0  0.49990  0.31527  0.33807  1.0000
  H   H57       1.0  0.50043  0.30358  0.20534  1.0000
  C   C63       1.0  0.50075  0.33564  0.31478  1.0000
  H   H58       1.0  0.50282  0.34031  0.25043  1.0000
  C   C64       1.0  0.80323  0.29191  0.27089  1.0000
  N   N6        1.0  0.82232  0.31140  0.29732  1.0000
  C   C65       1.0  0.78828  0.27658  0.33664  1.0000
  H   H59       1.0  0.79983  0.28890  0.20372  1.0000
  C   C66       1.0  0.76790  0.25708  0.31369  1.0000
  H   H60       1.0  0.76316  0.25451  0.24940  1.0000
  C   C67       1.0  0.05069  0.63534  0.36111  1.0000
  C   C68       1.0  0.02701  0.62363  0.36107  1.0000
  C   C69       1.0  0.01935  0.60016  0.36119  1.0000
  N   N7        1.0  0.03863  0.59856  0.36138  1.0000
  C   C70       1.0  0.05807  0.61931  0.36132  1.0000
  C   C71       1.0  0.08138  0.62474  0.36134  1.0000
  C   C72       1.0  0.08871  0.60829  0.36135  1.0000
  N   N8        1.0  0.07565  0.58519  0.36123  1.0000
  C   C73       1.0  0.08847  0.57488  0.36118  1.0000
  C   C74       1.0  0.11127  0.59257  0.36126  1.0000
  C   C75       1.0  0.11142  0.61311  0.36147  1.0000
  C   C76       1.0  0.08085  0.55104  0.36101  1.0000
  C   C77       1.0  0.05746  0.53336  0.36106  1.0000
  N   N9        1.0  0.03818  0.53497  0.36134  1.0000
  C   C78       1.0  0.01875  0.51421  0.36133  1.0000
  C   C79       1.0  0.02613  0.49819  0.36105  1.0000
  C   C80       1.0  0.04981  0.50990  0.36090  1.0000
  C   C81       1.0  0.99545  0.50879  0.36144  1.0000
  C   C82       1.0  0.98811  0.52523  0.36147  1.0000
  N   N10       1.0  0.00117  0.54833  0.36142  1.0000
  C   C83       1.0  0.98835  0.55863  0.36135  1.0000
  C   C84       1.0  0.96555  0.54094  0.36130  1.0000
  C   C85       1.0  0.96540  0.52040  0.36149  1.0000
  C   C86       1.0  0.99597  0.58248  0.36121  1.0000
  C   C87       1.0  0.97873  0.58890  0.36120  1.0000
  C   C88       1.0  0.94073  0.59679  0.36074  1.0000
  C   C89       1.0  0.95027  0.59439  0.44234  1.0000
  C   C90       1.0  0.96890  0.59043  0.44270  1.0000
  C   C91       1.0  0.92082  0.59935  0.36052  1.0000
  C   C92       1.0  0.91800  0.61331  0.42441  1.0000
  C   C93       1.0  0.89798  0.61498  0.42635  1.0000
  C   C94       1.0  0.88019  0.60303  0.36364  1.0000
  C   C95       1.0  0.97803  0.48520  0.36107  1.0000
  C   C96       1.0  0.94020  0.43921  0.36052  1.0000
  C   C97       1.0  0.95035  0.45071  0.44209  1.0000
  C   C98       1.0  0.96891  0.47334  0.44255  1.0000
  C   C99       1.0  0.92054  0.41658  0.36022  1.0000
  C   C100      1.0  0.88051  0.37183  0.35663  1.0000
  C   C101      1.0  0.88271  0.38834  0.42035  1.0000
  C   C102      1.0  0.90238  0.41026  0.42215  1.0000
  C   C103      1.0  0.09807  0.54460  0.36093  1.0000
  C   C104      1.0  0.10775  0.54267  0.44246  1.0000
  C   C105      1.0  0.12623  0.53848  0.44211  1.0000
  C   C106      1.0  0.13574  0.53621  0.36052  1.0000
  C   C107      1.0  0.15544  0.53329  0.36037  1.0000
  C   C108      1.0  0.19560  0.52880  0.36346  1.0000
  C   C109      1.0  0.17771  0.51684  0.42559  1.0000
  C   C110      1.0  0.15792  0.51892  0.42367  1.0000
  C   C111      1.0  0.09882  0.64832  0.36095  1.0000
  C   C112      1.0  0.10797  0.66013  0.44242  1.0000
  C   C113      1.0  0.13695  0.69414  0.36048  1.0000
  C   C114      1.0  0.12667  0.68267  0.44200  1.0000
  C   C115      1.0  0.15682  0.71663  0.36024  1.0000
  C   C116      1.0  0.17490  0.72268  0.42256  1.0000
  C   C117      1.0  0.19478  0.74445  0.42080  1.0000
  C   C118      1.0  0.19729  0.76107  0.35669  1.0000
  H   H61       1.0  0.20771  0.74783  0.46518  1.0000
  H   H62       1.0  0.17416  0.71097  0.46833  1.0000
  H   H63       1.0  0.13282  0.69063  0.50247  1.0000
  H   H64       1.0  0.10138  0.65221  0.50268  1.0000
  H   H65       1.0  0.06068  0.65278  0.36098  1.0000
  H   H66       1.0  0.01719  0.63127  0.36094  1.0000
  H   H67       1.0  0.03853  0.58427  0.36156  1.0000
  H   H68       1.0  0.03829  0.54926  0.36156  1.0000
  H   H69       1.0  0.12591  0.62886  0.36163  1.0000
  H   H70       1.0  0.12564  0.59109  0.36123  1.0000
  H   H71       1.0  0.10185  0.54498  0.50262  1.0000
  H   H72       1.0  0.13332  0.53810  0.50253  1.0000
  H   H73       1.0  0.05962  0.50225  0.36069  1.0000
  H   H74       1.0  0.01615  0.48074  0.36092  1.0000
  H   H75       1.0  0.95118  0.54241  0.36116  1.0000
  H   H76       1.0  0.95092  0.50465  0.36151  1.0000
  H   H77       1.0  0.97545  0.48125  0.50282  1.0000
  H   H78       1.0  0.94426  0.44271  0.50257  1.0000
  H   H79       1.0  0.90292  0.42188  0.46761  1.0000
  H   H80       1.0  0.86973  0.38474  0.46448  1.0000
  H   H81       1.0  0.97478  0.58795  0.50282  1.0000
  H   H82       1.0  0.94305  0.59442  0.50270  1.0000
  H   H83       1.0  0.89648  0.62505  0.47416  1.0000
  H   H84       1.0  0.93059  0.62252  0.47045  1.0000
  H   H85       1.0  0.14523  0.50968  0.46922  1.0000
  H   H86       1.0  0.17896  0.50647  0.47294  1.0000
  N   N11       1.0  0.86113  0.60427  0.37170  1.0000
  N   N12       1.0  0.21626  0.78145  0.34860  1.0000
  N   N13       1.0  0.21444  0.52714  0.37146  1.0000
  N   N14       1.0  0.86177  0.35126  0.34867  1.0000
  C   C119      1.0  0.46825  0.50728  0.36309  1.0000
  C   C120      1.0  0.47997  0.49532  0.36311  1.0000
  C   C121      1.0  0.50343  0.51113  0.36329  1.0000
  N   N15       1.0  0.50503  0.53201  0.36348  1.0000
  C   C122      1.0  0.48428  0.53069  0.36334  1.0000
  C   C123      1.0  0.47885  0.54857  0.36333  1.0000
  C   C124      1.0  0.49529  0.57235  0.36340  1.0000
  N   N16       1.0  0.51840  0.58240  0.36333  1.0000
  C   C125      1.0  0.52870  0.60552  0.36331  1.0000
  C   C126      1.0  0.51101  0.61063  0.36338  1.0000
  C   C127      1.0  0.49047  0.59024  0.36351  1.0000
  C   C128      1.0  0.55254  0.62174  0.36317  1.0000
  C   C129      1.0  0.57022  0.61603  0.36317  1.0000
  N   N17       1.0  0.56862  0.59516  0.36347  1.0000
  C   C130      1.0  0.58937  0.59648  0.36336  1.0000
  C   C131      1.0  0.60540  0.61989  0.36303  1.0000
  C   C132      1.0  0.59369  0.63185  0.36295  1.0000
  C   C133      1.0  0.59480  0.57860  0.36343  1.0000
  C   C134      1.0  0.57836  0.55482  0.36352  1.0000
  N   N18       1.0  0.55526  0.54478  0.36351  1.0000
  C   C135      1.0  0.54496  0.52165  0.36347  1.0000
  C   C136      1.0  0.56266  0.51655  0.36342  1.0000
  C   C137      1.0  0.58319  0.53694  0.36353  1.0000
  C   C138      1.0  0.52112  0.50543  0.36336  1.0000
  C   C139      1.0  0.51470  0.48177  0.36335  1.0000
  C   C140      1.0  0.50680  0.43587  0.36291  1.0000
  C   C141      1.0  0.50923  0.44773  0.44449  1.0000
  C   C142      1.0  0.51316  0.47030  0.44486  1.0000
  C   C143      1.0  0.50423  0.41341  0.36269  1.0000
  C   C144      1.0  0.49028  0.39655  0.42661  1.0000
  C   C145      1.0  0.48861  0.37486  0.42855  1.0000
  C   C146      1.0  0.50055  0.36909  0.36580  1.0000
  C   C147      1.0  0.61839  0.58477  0.36287  1.0000
  C   C148      1.0  0.66438  0.59294  0.36190  1.0000
  C   C149      1.0  0.65292  0.59149  0.44358  1.0000
  C   C150      1.0  0.63029  0.58742  0.44424  1.0000
  C   C151      1.0  0.68701  0.59591  0.36137  1.0000
  C   C152      1.0  0.73176  0.60065  0.35732  1.0000
  C   C153      1.0  0.71529  0.58627  0.42117  1.0000
  C   C154      1.0  0.69336  0.58399  0.42314  1.0000
  C   C155      1.0  0.55898  0.64540  0.36309  1.0000
  C   C156      1.0  0.56092  0.65691  0.44462  1.0000
  C   C157      1.0  0.56508  0.67957  0.44427  1.0000
  C   C158      1.0  0.56737  0.69147  0.36268  1.0000
  C   C159      1.0  0.57030  0.71408  0.36253  1.0000
  C   C160      1.0  0.57478  0.75873  0.36571  1.0000
  C   C161      1.0  0.58675  0.75272  0.42781  1.0000
  C   C162      1.0  0.58468  0.73086  0.42585  1.0000
  C   C163      1.0  0.45527  0.54243  0.36275  1.0000
  C   C164      1.0  0.44342  0.53967  0.44411  1.0000
  C   C165      1.0  0.40944  0.53472  0.36186  1.0000
  C   C166      1.0  0.42087  0.53582  0.44349  1.0000
  C   C167      1.0  0.38695  0.53211  0.36139  1.0000
  C   C168      1.0  0.38087  0.54406  0.42357  1.0000
  C   C169      1.0  0.35910  0.54218  0.42157  1.0000
  C   C170      1.0  0.34251  0.52814  0.35736  1.0000
  H   H87       1.0  0.35569  0.55166  0.46585  1.0000
  H   H88       1.0  0.39255  0.55497  0.46940  1.0000
  H   H89       1.0  0.41289  0.53395  0.50389  1.0000
  H   H90       1.0  0.45131  0.54093  0.50444  1.0000
  H   H91       1.0  0.45081  0.49982  0.36290  1.0000
  H   H92       1.0  0.47233  0.47786  0.36297  1.0000
  H   H93       1.0  0.51932  0.54620  0.36369  1.0000
  H   H94       1.0  0.55433  0.58096  0.36374  1.0000
  H   H95       1.0  0.47472  0.58897  0.36363  1.0000
  H   H96       1.0  0.51249  0.62647  0.36334  1.0000
  H   H97       1.0  0.55861  0.64862  0.50478  1.0000
  H   H98       1.0  0.56550  0.68698  0.50470  1.0000
  H   H99       1.0  0.60133  0.64931  0.36270  1.0000
  H   H100      1.0  0.62285  0.62735  0.36282  1.0000
  H   H101      1.0  0.56118  0.50071  0.36327  1.0000
  H   H102      1.0  0.59895  0.53821  0.36354  1.0000
  H   H103      1.0  0.62241  0.58596  0.50459  1.0000
  H   H104      1.0  0.66096  0.59332  0.50398  1.0000
  H   H105      1.0  0.68177  0.57286  0.46873  1.0000
  H   H106      1.0  0.71891  0.57682  0.46519  1.0000
  H   H107      1.0  0.51565  0.47859  0.50498  1.0000
  H   H108      1.0  0.50916  0.44038  0.50487  1.0000
  H   H109      1.0  0.47855  0.36324  0.47638  1.0000
  H   H110      1.0  0.48108  0.39987  0.47266  1.0000
  H   H111      1.0  0.59391  0.72735  0.47141  1.0000
  H   H112      1.0  0.59712  0.76428  0.47517  1.0000
  N   N19       1.0  0.49932  0.34878  0.37389  1.0000
  N   N20       1.0  0.32213  0.52674  0.34900  1.0000
  N   N21       1.0  0.57645  0.77923  0.37371  1.0000
  N   N22       1.0  0.75232  0.60247  0.34911  1.0000
  C   C171      1.0  0.59630  0.05290  0.36471  1.0000
  C   C172      1.0  0.60826  0.07658  0.36461  1.0000
  C   C173      1.0  0.59245  0.08424  0.36483  1.0000
  N   N23       1.0  0.57158  0.06495  0.36515  1.0000
  C   C174      1.0  0.57289  0.04552  0.36506  1.0000
  C   C175      1.0  0.55501  0.02221  0.36512  1.0000
  C   C176      1.0  0.53123  0.01488  0.36513  1.0000
  N   N24       1.0  0.52119  0.02794  0.36499  1.0000
  C   C177      1.0  0.49806  0.01512  0.36486  1.0000
  C   C178      1.0  0.49295  0.99232  0.36491  1.0000
  C   C179      1.0  0.51334  0.99217  0.36518  1.0000
  C   C180      1.0  0.48184  0.02274  0.36460  1.0000
  C   C181      1.0  0.48755  0.04613  0.36469  1.0000
  N   N25       1.0  0.50843  0.06540  0.36513  1.0000
  C   C182      1.0  0.50711  0.08484  0.36506  1.0000
  C   C183      1.0  0.48370  0.07745  0.36466  1.0000
  C   C184      1.0  0.47174  0.05378  0.36444  1.0000
  C   C185      1.0  0.52499  0.10814  0.36521  1.0000
  C   C186      1.0  0.54877  0.11548  0.36524  1.0000
  N   N26       1.0  0.55881  0.10242  0.36517  1.0000
  C   C187      1.0  0.58194  0.11524  0.36503  1.0000
  C   C188      1.0  0.58704  0.13804  0.36498  1.0000
  C   C189      1.0  0.56665  0.13819  0.36522  1.0000
  C   C190      1.0  0.59816  0.10762  0.36481  1.0000
  C   C191      1.0  0.62182  0.12486  0.36453  1.0000
  C   C192      1.0  0.66771  0.16286  0.36342  1.0000
  C   C193      1.0  0.65593  0.15339  0.44517  1.0000
  C   C194      1.0  0.63335  0.13474  0.44587  1.0000
  C   C195      1.0  0.69018  0.18276  0.36286  1.0000
  C   C196      1.0  0.70709  0.18564  0.42658  1.0000
  C   C197      1.0  0.72878  0.20565  0.42817  1.0000
  C   C198      1.0  0.73449  0.22340  0.36530  1.0000
  C   C199      1.0  0.51883  0.12556  0.36471  1.0000
  C   C200      1.0  0.51063  0.16337  0.36389  1.0000
  C   C201      1.0  0.51210  0.15325  0.44554  1.0000
  C   C202      1.0  0.51618  0.13470  0.44612  1.0000
  C   C203      1.0  0.50766  0.18303  0.36343  1.0000
  C   C204      1.0  0.50292  0.22305  0.35948  1.0000
  C   C205      1.0  0.51730  0.22087  0.42329  1.0000
  C   C206      1.0  0.51957  0.20121  0.42525  1.0000
  C   C207      1.0  0.45819  0.00552  0.36420  1.0000
  C   C208      1.0  0.44661  0.99579  0.44557  1.0000
  C   C209      1.0  0.42394  0.97730  0.44490  1.0000
  C   C210      1.0  0.41212  0.96784  0.36315  1.0000
  C   C211      1.0  0.38951  0.94815  0.36266  1.0000
  C   C212      1.0  0.34484  0.90799  0.36504  1.0000
  C   C213      1.0  0.35081  0.92583  0.42739  1.0000
  C   C214      1.0  0.37268  0.94562  0.42581  1.0000
  C   C215      1.0  0.56115  0.00478  0.36458  1.0000
  C   C216      1.0  0.56390  0.99559  0.44598  1.0000
  C   C217      1.0  0.56885  0.96664  0.36383  1.0000
  C   C218      1.0  0.56774  0.97688  0.44542  1.0000
  C   C219      1.0  0.57147  0.94677  0.36342  1.0000
  C   C220      1.0  0.55951  0.92866  0.42562  1.0000
  C   C221      1.0  0.56138  0.90877  0.42361  1.0000
  C   C222      1.0  0.57544  0.90631  0.35948  1.0000
  H   H113      1.0  0.55191  0.89583  0.46794  1.0000
  H   H114      1.0  0.54859  0.92938  0.47141  1.0000
  H   H115      1.0  0.56961  0.97070  0.50585  1.0000
  H   H116      1.0  0.56263  0.00214  0.50629  1.0000
  H   H117      1.0  0.60376  0.04291  0.36451  1.0000
  H   H118      1.0  0.62572  0.08640  0.36437  1.0000
  H   H119      1.0  0.55738  0.06506  0.36543  1.0000
  H   H120      1.0  0.52262  0.06530  0.36545  1.0000
  H   H121      1.0  0.51460  0.97768  0.36530  1.0000
  H   H122      1.0  0.47710  0.97795  0.36480  1.0000
  H   H123      1.0  0.45485  0.00164  0.50584  1.0000
  H   H124      1.0  0.41651  0.97017  0.50522  1.0000
  H   H125      1.0  0.45428  0.04397  0.36411  1.0000
  H   H126      1.0  0.47624  0.08744  0.36445  1.0000
  H   H127      1.0  0.60289  0.15241  0.36477  1.0000
  H   H128      1.0  0.56538  0.15267  0.36522  1.0000
  H   H129      1.0  0.51764  0.12818  0.50644  1.0000
  H   H130      1.0  0.51027  0.15937  0.50596  1.0000
  H   H131      1.0  0.53072  0.20070  0.47073  1.0000
  H   H132      1.0  0.52676  0.23388  0.46729  1.0000
  H   H133      1.0  0.62511  0.12890  0.50610  1.0000
  H   H134      1.0  0.66332  0.16062  0.50543  1.0000
  H   H135      1.0  0.74045  0.20719  0.47586  1.0000
  H   H136      1.0  0.70381  0.17308  0.47272  1.0000
  H   H137      1.0  0.37615  0.95827  0.47151  1.0000
  H   H138      1.0  0.33921  0.92455  0.47464  1.0000
  N   N27       1.0  0.75481  0.24247  0.37302  1.0000
  N   N28       1.0  0.57684  0.88734  0.35117  1.0000
  N   N29       1.0  0.32435  0.88914  0.37277  1.0000
  N   N30       1.0  0.50109  0.24179  0.35129  1.0000
  C   C223      1.0  0.28836  0.52681  0.38469  1.0000
  C   C224      1.0  0.27302  0.52644  0.45017  1.0000
  N   N31       1.0  0.25389  0.52676  0.42340  1.0000
  H   H139      1.0  0.27618  0.52640  0.51741  1.0000
  C   C225      1.0  0.30879  0.52782  0.40811  1.0000
  H   H140      1.0  0.31334  0.52969  0.47260  1.0000
  C   C226      1.0  0.57676  0.85345  0.38689  1.0000
  C   C227      1.0  0.57711  0.83838  0.45238  1.0000
  N   N32       1.0  0.57681  0.81898  0.42564  1.0000
  H   H141      1.0  0.57717  0.84152  0.51962  1.0000
  C   C228      1.0  0.57574  0.87284  0.41030  1.0000
  H   H142      1.0  0.57386  0.87543  0.47477  1.0000
  C   C229      1.0  0.25011  0.81521  0.38481  1.0000
  C   C230      1.0  0.26511  0.83052  0.45053  1.0000
  N   N33       1.0  0.28454  0.84966  0.42408  1.0000
  H   H143      1.0  0.26192  0.82731  0.51772  1.0000
  C   C231      1.0  0.23070  0.79477  0.40793  1.0000
  H   H144      1.0  0.22805  0.79018  0.47237  1.0000
  C   C232      1.0  0.78643  0.60300  0.38486  1.0000
  C   C233      1.0  0.80191  0.60349  0.45036  1.0000
  N   N34       1.0  0.82125  0.60368  0.42362  1.0000
  H   H145      1.0  0.79870  0.60329  0.51760  1.0000
  C   C234      1.0  0.76581  0.60150  0.40822  1.0000
  H   H146      1.0  0.76123  0.59937  0.47263  1.0000
  C   C235      1.0  0.50057  0.27533  0.38705  1.0000
  C   C236      1.0  0.50008  0.29023  0.45256  1.0000
  N   N35       1.0  0.49991  0.30943  0.42581  1.0000
  H   H147      1.0  0.50030  0.28715  0.51979  1.0000
  C   C237      1.0  0.50208  0.25618  0.41040  1.0000
  H   H148      1.0  0.50423  0.25366  0.47480  1.0000
  C   C238      1.0  0.82827  0.31717  0.38496  1.0000
  C   C239      1.0  0.81343  0.30173  0.45072  1.0000
  N   N36       1.0  0.79421  0.28237  0.42429  1.0000
  H   H149      1.0  0.81660  0.30497  0.51790  1.0000
  C   C240      1.0  0.84745  0.33781  0.40801  1.0000
  H   H150      1.0  0.85003  0.34242  0.47238  1.0000
