data_image0
_chemical_formula_structural       C12H6C6H3C9H3C12H6C6H3C9H3C6HNC6NH7N4C5H6C6H6C13H6C6H3C9H3C12H6C6H3C9H3C6HNC6NH7N4C5H6C6H6C
_chemical_formula_sum              "C156 H88 N12"
_cell_length_a       37.8353
_cell_length_b       46.2671
_cell_length_c       15.1086
_cell_angle_alpha    93.4408
_cell_angle_beta     87.897
_cell_angle_gamma    88.877

_space_group_name_H-M_alt    "P 1"
_space_group_IT_number       1

loop_
  _space_group_symop_operation_xyz
  'x, y, z'

loop_
  _atom_site_type_symbol
  _atom_site_label
  _atom_site_symmetry_multiplicity
  _atom_site_fract_x
  _atom_site_fract_y
  _atom_site_fract_z
  _atom_site_occupancy
  C   C1        1.0  0.18956  0.36594  0.32186  1.0000
  C   C2        1.0  0.18278  0.16059  0.32201  1.0000
  C   C3        1.0  0.40179  0.25482  0.32095  1.0000
  C   C4        1.0  0.14478  0.11040  0.32001  1.0000
  C   C5        1.0  0.12736  0.13710  0.30598  1.0000
  C   C6        1.0  0.14642  0.16203  0.30672  1.0000
  C   C7        1.0  0.15465  0.42014  0.32153  1.0000
  C   C8        1.0  0.19148  0.41743  0.30260  1.0000
  C   C9        1.0  0.20893  0.39066  0.30349  1.0000
  C   C10       1.0  0.47922  0.25156  0.32000  1.0000
  C   C11       1.0  0.45840  0.22662  0.30257  1.0000
  C   C12       1.0  0.42092  0.22816  0.30276  1.0000
  H   H1        1.0  0.10074  0.13943  0.29504  1.0000
  H   H2        1.0  0.13329  0.18106  0.29562  1.0000
  H   H3        1.0  0.23574  0.38957  0.28941  1.0000
  H   H4        1.0  0.20638  0.43503  0.28872  1.0000
  H   H5        1.0  0.47036  0.20664  0.28898  1.0000
  H   H6        1.0  0.40759  0.20939  0.28937  1.0000
  C   C13       1.0  0.29781  0.25896  0.32129  1.0000
  C   C14       1.0  0.27919  0.28610  0.32238  1.0000
  C   C15       1.0  0.24160  0.28737  0.32183  1.0000
  C   C16       1.0  0.22163  0.26182  0.32100  1.0000
  C   C17       1.0  0.23970  0.23495  0.32156  1.0000
  C   C18       1.0  0.27718  0.23360  0.32150  1.0000
  H   H7        1.0  0.19436  0.26226  0.32065  1.0000
  H   H8        1.0  0.29283  0.30500  0.32087  1.0000
  H   H9        1.0  0.29006  0.21378  0.32130  1.0000
  C   C19       1.0  0.36580  0.25619  0.32100  1.0000
  C   C20       1.0  0.33367  0.25744  0.32100  1.0000
  C   C21       1.0  0.19796  0.18756  0.32005  1.0000
  C   C22       1.0  0.22404  0.20795  0.32189  1.0000
  C   C23       1.0  0.21931  0.31167  0.31961  1.0000
  C   C24       1.0  0.21048  0.34079  0.31887  1.0000
  C   C25       1.0  0.51683  0.24698  0.31992  1.0000
  C   C26       1.0  0.13966  0.44746  0.30979  1.0000
  C   C27       1.0  0.12175  0.08808  0.32091  1.0000
  H   H10       1.0  0.09705  0.09463  0.30431  1.0000
  H   H11       1.0  0.15299  0.45963  0.26502  1.0000
  H   H12       1.0  0.52523  0.22644  0.31605  1.0000
  C   C28       1.0  0.87153  0.14766  0.32159  1.0000
  C   C29       1.0  0.87678  0.35165  0.32811  1.0000
  C   C30       1.0  0.65830  0.25847  0.32095  1.0000
  C   C31       1.0  0.91544  0.40278  0.32034  1.0000
  C   C32       1.0  0.93302  0.37541  0.30629  1.0000
  C   C33       1.0  0.91359  0.35040  0.30722  1.0000
  C   C34       1.0  0.90542  0.09318  0.32158  1.0000
  C   C35       1.0  0.86919  0.09520  0.30263  1.0000
  C   C36       1.0  0.85210  0.12224  0.30294  1.0000
  C   C37       1.0  0.58090  0.26169  0.32000  1.0000
  C   C38       1.0  0.60225  0.28594  0.30258  1.0000
  C   C39       1.0  0.63972  0.28441  0.30277  1.0000
  H   H13       1.0  0.95992  0.37263  0.29400  1.0000
  H   H14       1.0  0.92674  0.33096  0.29371  1.0000
  H   H15       1.0  0.82566  0.12295  0.28926  1.0000
  H   H16       1.0  0.85465  0.07708  0.28857  1.0000
  H   H17       1.0  0.59070  0.30538  0.28897  1.0000
  H   H18       1.0  0.65345  0.30265  0.28937  1.0000
  C   C40       1.0  0.76254  0.25456  0.32096  1.0000
  C   C41       1.0  0.78187  0.22781  0.32144  1.0000
  C   C42       1.0  0.81974  0.22680  0.32283  1.0000
  C   C43       1.0  0.83911  0.25215  0.32230  1.0000
  C   C44       1.0  0.82120  0.27925  0.31854  1.0000
  C   C45       1.0  0.78327  0.28011  0.32097  1.0000
  H   H19       1.0  0.86621  0.25073  0.32225  1.0000
  H   H20       1.0  0.76775  0.20893  0.32067  1.0000
  H   H21       1.0  0.77059  0.29996  0.32302  1.0000
  C   C46       1.0  0.69431  0.25710  0.32101  1.0000
  C   C47       1.0  0.72647  0.25585  0.32101  1.0000
  C   C48       1.0  0.85703  0.32746  0.29797  1.0000
  C   C49       1.0  0.84141  0.30411  0.34021  1.0000
  C   C50       1.0  0.83285  0.19859  0.31753  1.0000
  C   C51       1.0  0.85163  0.17289  0.31900  1.0000
  C   C52       1.0  0.54329  0.26626  0.31981  1.0000
  C   C53       1.0  0.92076  0.06543  0.30965  1.0000
  C   C54       1.0  0.93949  0.42482  0.32023  1.0000
  H   H22       1.0  0.96454  0.41787  0.30420  1.0000
  H   H23       1.0  0.90879  0.05130  0.26545  1.0000
  H   H24       1.0  0.53501  0.28666  0.31610  1.0000
  C   C55       1.0  0.04872  0.50855  0.34944  1.0000
  C   C56       1.0  0.07215  0.48473  0.36043  1.0000
  C   C57       1.0  0.10938  0.48773  0.36416  1.0000
  C   C58       1.0  0.12659  0.01401  0.35113  1.0000
  C   C59       1.0  0.10278  0.03650  0.34027  1.0000
  C   C60       1.0  0.06546  0.03516  0.33956  1.0000
  H   H25       1.0  0.06243  0.46475  0.37115  1.0000
  N   N1        1.0  0.16234  0.01783  0.35007  1.0000
  C   C61       1.0  0.01052  0.50587  0.34945  1.0000
  C   C62       1.0  0.99428  0.47881  0.33952  1.0000
  C   C63       1.0  0.95759  0.47734  0.34006  1.0000
  C   C64       1.0  0.93277  0.50038  0.35117  1.0000
  C   C65       1.0  0.94941  0.02727  0.36420  1.0000
  C   C66       1.0  0.98675  0.03013  0.36040  1.0000
  N   N2        1.0  0.89689  0.49661  0.35007  1.0000
  H   H26       1.0  0.99613  0.05053  0.37122  1.0000
  H   H27       1.0  0.88669  0.47751  0.34233  1.0000
  H   H28       1.0  0.88045  0.01305  0.35852  1.0000
  H   H29       1.0  0.17272  0.03665  0.34231  1.0000
  H   H30       1.0  0.17851  0.50173  0.35854  1.0000
  H   H31       1.0  0.05065  0.05345  0.32918  1.0000
  H   H32       1.0  0.00907  0.46007  0.32917  1.0000
  N   N3        1.0  0.93125  0.05231  0.38150  1.0000
  N   N4        1.0  0.94636  0.45149  0.33093  1.0000
  N   N5        1.0  0.11109  0.06270  0.33005  1.0000
  N   N6        1.0  0.12695  0.46337  0.38159  1.0000
  C   C67       1.0  0.20040  0.13408  0.33689  1.0000
  C   C68       1.0  0.15253  0.36779  0.33983  1.0000
  C   C69       1.0  0.13493  0.39511  0.33978  1.0000
  C   C70       1.0  0.42240  0.27989  0.33901  1.0000
  C   C71       1.0  0.46015  0.27839  0.33886  1.0000
  H   H33       1.0  0.19311  0.08903  0.34852  1.0000
  H   H34       1.0  0.13853  0.34963  0.35233  1.0000
  H   H35       1.0  0.10804  0.39649  0.35091  1.0000
  H   H36       1.0  0.40997  0.29966  0.35267  1.0000
  H   H37       1.0  0.47351  0.29707  0.35292  1.0000
  H   H38       1.0  0.22690  0.13345  0.34822  1.0000
  C   C72       1.0  0.18101  0.10840  0.33727  1.0000
  C   C73       1.0  0.85954  0.37945  0.33759  1.0000
  C   C74       1.0  0.90739  0.14628  0.34121  1.0000
  C   C75       1.0  0.92468  0.11890  0.33989  1.0000
  C   C76       1.0  0.63715  0.23411  0.33901  1.0000
  C   C77       1.0  0.59940  0.23561  0.33887  1.0000
  H   H39       1.0  0.86608  0.42516  0.34746  1.0000
  H   H40       1.0  0.92116  0.16489  0.35268  1.0000
  H   H41       1.0  0.95123  0.11789  0.35076  1.0000
  H   H42       1.0  0.64916  0.21489  0.35267  1.0000
  H   H43       1.0  0.58562  0.21749  0.35290  1.0000
  H   H44       1.0  0.83257  0.38097  0.34605  1.0000
  C   C78       1.0  0.87868  0.40535  0.33757  1.0000
  C   C79       1.0  0.18859  0.86567  0.32133  1.0000
  C   C80       1.0  0.18277  0.66057  0.32199  1.0000
  C   C81       1.0  0.40179  0.75482  0.32095  1.0000
  C   C82       1.0  0.14474  0.61040  0.32010  1.0000
  C   C83       1.0  0.12735  0.63711  0.30598  1.0000
  C   C84       1.0  0.14642  0.66203  0.30670  1.0000
  C   C85       1.0  0.15466  0.92015  0.32155  1.0000
  C   C86       1.0  0.19147  0.91736  0.30261  1.0000
  C   C87       1.0  0.20849  0.89032  0.30290  1.0000
  C   C88       1.0  0.47922  0.75156  0.32000  1.0000
  C   C89       1.0  0.45840  0.72662  0.30257  1.0000
  C   C90       1.0  0.42092  0.72816  0.30276  1.0000
  H   H45       1.0  0.10073  0.63945  0.29504  1.0000
  H   H46       1.0  0.13331  0.68108  0.29561  1.0000
  H   H47       1.0  0.23535  0.88911  0.28922  1.0000
  H   H48       1.0  0.20646  0.93491  0.28860  1.0000
  H   H49       1.0  0.47036  0.70664  0.28898  1.0000
  H   H50       1.0  0.40759  0.70939  0.28937  1.0000
  C   C91       1.0  0.29766  0.75894  0.32124  1.0000
  C   C92       1.0  0.27821  0.78563  0.32162  1.0000
  C   C93       1.0  0.24018  0.78661  0.32279  1.0000
  C   C94       1.0  0.22058  0.76141  0.32192  1.0000
  C   C95       1.0  0.23959  0.73489  0.32162  1.0000
  C   C96       1.0  0.27715  0.73358  0.32152  1.0000
  H   H51       1.0  0.19354  0.76235  0.32048  1.0000
  H   H52       1.0  0.29231  0.80449  0.32073  1.0000
  H   H53       1.0  0.29007  0.71378  0.32130  1.0000
  C   C97       1.0  0.36579  0.75619  0.32100  1.0000
  C   C98       1.0  0.33365  0.75747  0.32098  1.0000
  C   C99       1.0  0.19806  0.68748  0.32010  1.0000
  C   C100      1.0  0.22397  0.70797  0.32183  1.0000
  C   C101      1.0  0.22712  0.81455  0.31809  1.0000
  C   C102      1.0  0.20873  0.84045  0.31885  1.0000
  C   C103      1.0  0.51683  0.74699  0.31992  1.0000
  C   C104      1.0  0.13967  0.94746  0.30978  1.0000
  C   C105      1.0  0.12135  0.58820  0.32065  1.0000
  H   H54       1.0  0.09674  0.59463  0.30402  1.0000
  H   H55       1.0  0.15300  0.95962  0.26502  1.0000
  H   H56       1.0  0.52523  0.72644  0.31605  1.0000
  C   C106      1.0  0.87140  0.64760  0.32172  1.0000
  C   C107      1.0  0.87676  0.85164  0.32806  1.0000
  C   C108      1.0  0.65830  0.75847  0.32095  1.0000
  C   C109      1.0  0.91543  0.90277  0.32020  1.0000
  C   C110      1.0  0.93301  0.87541  0.30631  1.0000
  C   C111      1.0  0.91359  0.85040  0.30721  1.0000
  C   C112      1.0  0.90542  0.59319  0.32158  1.0000
  C   C113      1.0  0.86919  0.59520  0.30263  1.0000
  C   C114      1.0  0.85209  0.62223  0.30295  1.0000
  C   C115      1.0  0.58089  0.76169  0.32000  1.0000
  C   C116      1.0  0.60224  0.78594  0.30258  1.0000
  C   C117      1.0  0.63972  0.78441  0.30277  1.0000
  H   H57       1.0  0.95992  0.87263  0.29404  1.0000
  H   H58       1.0  0.92673  0.83097  0.29371  1.0000
  H   H59       1.0  0.82567  0.62296  0.28925  1.0000
  H   H60       1.0  0.85465  0.57708  0.28854  1.0000
  H   H61       1.0  0.59070  0.80538  0.28897  1.0000
  H   H62       1.0  0.65345  0.80265  0.28937  1.0000
  C   C118      1.0  0.76255  0.75456  0.32095  1.0000
  C   C119      1.0  0.78187  0.72781  0.32146  1.0000
  C   C120      1.0  0.81977  0.72681  0.32322  1.0000
  C   C121      1.0  0.83910  0.75215  0.32229  1.0000
  C   C122      1.0  0.82122  0.77926  0.31846  1.0000
  C   C123      1.0  0.78328  0.78011  0.32097  1.0000
  H   H63       1.0  0.86619  0.75073  0.32224  1.0000
  H   H64       1.0  0.76775  0.70893  0.32064  1.0000
  H   H65       1.0  0.77060  0.79996  0.32305  1.0000
  C   C124      1.0  0.69431  0.75710  0.32101  1.0000
  C   C125      1.0  0.72647  0.75585  0.32101  1.0000
  C   C126      1.0  0.85704  0.82742  0.29789  1.0000
  C   C127      1.0  0.84138  0.80415  0.34044  1.0000
  C   C128      1.0  0.83269  0.69850  0.31682  1.0000
  C   C129      1.0  0.85194  0.67306  0.31917  1.0000
  C   C130      1.0  0.54329  0.76626  0.31981  1.0000
  C   C131      1.0  0.92076  0.56543  0.30965  1.0000
  C   C132      1.0  0.93981  0.92474  0.32146  1.0000
  H   H66       1.0  0.96451  0.91785  0.30531  1.0000
  H   H67       1.0  0.90879  0.55130  0.26545  1.0000
  H   H68       1.0  0.53501  0.78666  0.31610  1.0000
  C   C133      1.0  0.04872  0.00855  0.34944  1.0000
  C   C134      1.0  0.07215  0.98474  0.36043  1.0000
  C   C135      1.0  0.10938  0.98773  0.36415  1.0000
  C   C136      1.0  0.12653  0.51404  0.35115  1.0000
  C   C137      1.0  0.10245  0.53657  0.34018  1.0000
  C   C138      1.0  0.06539  0.53518  0.33954  1.0000
  H   H69       1.0  0.06243  0.96475  0.37115  1.0000
  N   N7        1.0  0.16234  0.51783  0.35007  1.0000
  C   C139      1.0  0.01052  0.00587  0.34945  1.0000
  C   C140      1.0  0.99427  0.97881  0.33972  1.0000
  C   C141      1.0  0.95790  0.97722  0.34097  1.0000
  C   C142      1.0  0.93277  0.00038  0.35108  1.0000
  C   C143      1.0  0.94941  0.52727  0.36420  1.0000
  C   C144      1.0  0.98675  0.53013  0.36039  1.0000
  N   N8        1.0  0.89688  0.99661  0.35006  1.0000
  H   H70       1.0  0.99613  0.55053  0.37122  1.0000
  H   H71       1.0  0.88669  0.97751  0.34240  1.0000
  H   H72       1.0  0.88045  0.51305  0.35857  1.0000
  H   H73       1.0  0.17273  0.53664  0.34231  1.0000
  H   H74       1.0  0.17851  0.00173  0.35855  1.0000
  H   H75       1.0  0.05070  0.55348  0.32917  1.0000
  H   H76       1.0  0.00906  0.96009  0.32913  1.0000
  N   N9        1.0  0.93125  0.55231  0.38151  1.0000
  N   N10       1.0  0.94577  0.95168  0.32921  1.0000
  N   N11       1.0  0.11191  0.56251  0.33035  1.0000
  N   N12       1.0  0.12695  0.96337  0.38159  1.0000
  C   C145      1.0  0.20039  0.63407  0.33690  1.0000
  C   C146      1.0  0.15206  0.86780  0.34132  1.0000
  C   C147      1.0  0.13485  0.89515  0.33988  1.0000
  C   C148      1.0  0.42240  0.77989  0.33901  1.0000
  C   C149      1.0  0.46015  0.77839  0.33886  1.0000
  H   H77       1.0  0.19310  0.58903  0.34852  1.0000
  H   H78       1.0  0.13794  0.84964  0.35270  1.0000
  H   H79       1.0  0.10797  0.89660  0.35077  1.0000
  H   H80       1.0  0.40997  0.79966  0.35267  1.0000
  H   H81       1.0  0.47351  0.79707  0.35292  1.0000
  H   H82       1.0  0.22690  0.63344  0.34822  1.0000
  C   C150      1.0  0.18100  0.60839  0.33726  1.0000
  C   C151      1.0  0.85954  0.87944  0.33758  1.0000
  C   C152      1.0  0.90737  0.64628  0.34121  1.0000
  C   C153      1.0  0.92467  0.61890  0.33989  1.0000
  C   C154      1.0  0.63715  0.73411  0.33901  1.0000
  C   C155      1.0  0.59940  0.73561  0.33887  1.0000
  H   H83       1.0  0.86608  0.92515  0.34751  1.0000
  H   H84       1.0  0.92116  0.66489  0.35264  1.0000
  H   H85       1.0  0.95123  0.61790  0.35072  1.0000
  H   H86       1.0  0.64916  0.71489  0.35267  1.0000
  H   H87       1.0  0.58562  0.71749  0.35290  1.0000
  H   H88       1.0  0.83257  0.88096  0.34604  1.0000
  C   C156      1.0  0.87867  0.90534  0.33753  1.0000
