data_image0
_chemical_formula_structural       C5H6C6H6C6H6C6H6C3HC6H3NC2HC6H3NC2HC6H3NC2NC2HNHNC2NC2HNHNC2NC2HNHNC12H6C6H3C9H3C12H6C6H3C9H3C12H6C6H3C9H3C12H6C6H3C9H3C2NC2HNHNC2NC2HNHNC2NC2HNHNC2HC6H3NC2HC6H3NC2HC6H3N
_chemical_formula_sum              "C204 H108 N24"
_cell_length_a       80.8053
_cell_length_b       80.8081
_cell_length_c       14.9933
_cell_angle_alpha    90
_cell_angle_beta     90
_cell_angle_gamma    119.998

_space_group_name_H-M_alt    "P 1"
_space_group_IT_number       1

loop_
  _space_group_symop_operation_xyz
  'x, y, z'

loop_
  _atom_site_type_symbol
  _atom_site_label
  _atom_site_symmetry_multiplicity
  _atom_site_fract_x
  _atom_site_fract_y
  _atom_site_fract_z
  _atom_site_occupancy
  C   C1        1.0  0.95810  0.04803  0.31268  1.0000
  C   C2        1.0  0.94198  0.91011  0.31156  1.0000
  C   C3        1.0  0.93360  0.89025  0.32424  1.0000
  C   C4        1.0  0.07981  0.03193  0.31148  1.0000
  C   C5        1.0  0.09966  0.04341  0.32416  1.0000
  H   H1        1.0  0.95212  0.07048  0.30879  1.0000
  H   H2        1.0  0.93388  0.91537  0.28462  1.0000
  H   H3        1.0  0.91959  0.88166  0.30648  1.0000
  H   H4        1.0  0.07454  0.01858  0.28451  1.0000
  H   H5        1.0  0.10826  0.03800  0.30639  1.0000
  H   H6        1.0  0.97159  0.05623  0.28715  1.0000
  C   C6        1.0  0.94660  0.05639  0.32518  1.0000
  C   C7        1.0  0.48033  0.29568  0.32018  1.0000
  C   C8        1.0  0.33836  0.17883  0.33570  1.0000
  C   C9        1.0  0.31844  0.16724  0.32592  1.0000
  C   C10       1.0  0.46670  0.16647  0.32876  1.0000
  C   C11       1.0  0.48168  0.16240  0.32119  1.0000
  H   H7        1.0  0.50624  0.32143  0.30883  1.0000
  H   H8        1.0  0.34412  0.19332  0.34114  1.0000
  H   H9        1.0  0.31028  0.17366  0.32388  1.0000
  H   H10       1.0  0.45288  0.15556  0.32197  1.0000
  H   H11       1.0  0.47838  0.14863  0.30864  1.0000
  H   H12       1.0  0.48599  0.28772  0.29571  1.0000
  C   C12       1.0  0.49224  0.31558  0.32769  1.0000
  C   C13       1.0  0.69429  0.18478  0.32021  1.0000
  C   C14       1.0  0.81114  0.15964  0.33573  1.0000
  C   C15       1.0  0.82273  0.15132  0.32589  1.0000
  C   C16       1.0  0.82349  0.30031  0.32882  1.0000
  C   C17       1.0  0.82757  0.31938  0.32112  1.0000
  H   H13       1.0  0.66855  0.18495  0.30877  1.0000
  H   H14       1.0  0.79663  0.15089  0.34106  1.0000
  H   H15       1.0  0.81630  0.13673  0.32376  1.0000
  H   H16       1.0  0.83441  0.29741  0.32217  1.0000
  H   H17       1.0  0.84135  0.32983  0.30847  1.0000
  H   H18       1.0  0.70225  0.19839  0.29572  1.0000
  C   C18       1.0  0.67439  0.17680  0.32770  1.0000
  C   C19       1.0  0.80519  0.50959  0.32025  1.0000
  C   C20       1.0  0.83030  0.65156  0.33569  1.0000
  C   C21       1.0  0.83864  0.67148  0.32590  1.0000
  C   C22       1.0  0.68962  0.52323  0.32891  1.0000
  C   C23       1.0  0.67055  0.50824  0.32124  1.0000
  H   H19       1.0  0.80505  0.48370  0.30869  1.0000
  H   H20       1.0  0.83905  0.64580  0.34114  1.0000
  H   H21       1.0  0.85323  0.67963  0.32387  1.0000
  H   H22       1.0  0.69251  0.53705  0.32224  1.0000
  H   H23       1.0  0.66009  0.51155  0.30870  1.0000
  H   H24       1.0  0.79158  0.50394  0.29565  1.0000
  C   C24       1.0  0.81319  0.49769  0.32769  1.0000
  C   C25       1.0  0.22906  0.11146  0.25001  1.0000
  C   C26       1.0  0.24922  0.12106  0.25280  1.0000
  H   H25       1.0  0.25672  0.12201  0.19617  1.0000
  C   C27       1.0  0.19881  0.10096  0.32889  1.0000
  C   C28       1.0  0.15858  0.08189  0.33067  1.0000
  C   C29       1.0  0.16839  0.08259  0.25169  1.0000
  C   C30       1.0  0.18857  0.09218  0.24944  1.0000
  C   C31       1.0  0.19870  0.09322  0.17099  1.0000
  C   C32       1.0  0.21878  0.10279  0.17126  1.0000
  H   H26       1.0  0.19155  0.08699  0.11317  1.0000
  H   H27       1.0  0.22583  0.10331  0.11365  1.0000
  H   H28       1.0  0.16076  0.07613  0.19510  1.0000
  N   N1        1.0  0.13958  0.07241  0.32847  1.0000
  C   C33       1.0  0.87857  0.11777  0.24983  1.0000
  C   C34       1.0  0.86897  0.12833  0.25268  1.0000
  H   H29       1.0  0.86806  0.13494  0.19616  1.0000
  C   C35       1.0  0.88899  0.09794  0.32849  1.0000
  C   C36       1.0  0.90807  0.07678  0.33014  1.0000
  C   C37       1.0  0.90745  0.08599  0.25131  1.0000
  C   C38       1.0  0.89786  0.09657  0.24912  1.0000
  C   C39       1.0  0.89689  0.10575  0.17083  1.0000
  C   C40       1.0  0.88732  0.11626  0.17117  1.0000
  H   H30       1.0  0.90318  0.10490  0.11308  1.0000
  H   H31       1.0  0.88685  0.12285  0.11367  1.0000
  H   H32       1.0  0.91396  0.08488  0.19479  1.0000
  N   N2        1.0  0.91754  0.06726  0.32791  1.0000
  C   C41       1.0  0.87224  0.76086  0.25001  1.0000
  C   C42       1.0  0.86169  0.74070  0.25278  1.0000
  H   H33       1.0  0.85512  0.73320  0.19617  1.0000
  C   C43       1.0  0.89200  0.79111  0.32887  1.0000
  C   C44       1.0  0.91315  0.83134  0.33067  1.0000
  C   C45       1.0  0.90402  0.82152  0.25170  1.0000
  C   C46       1.0  0.89344  0.80135  0.24945  1.0000
  C   C47       1.0  0.88433  0.79122  0.17102  1.0000
  C   C48       1.0  0.87382  0.77114  0.17129  1.0000
  H   H34       1.0  0.88523  0.79837  0.11323  1.0000
  H   H35       1.0  0.86729  0.76409  0.11370  1.0000
  H   H36       1.0  0.90519  0.82915  0.19513  1.0000
  N   N3        1.0  0.92268  0.85034  0.32845  1.0000
  C   C49       1.0  0.61556  0.15235  0.33411  1.0000
  C   C50       1.0  0.60820  0.15662  0.25784  1.0000
  N   N4        1.0  0.59088  0.15544  0.26062  1.0000
  C   C51       1.0  0.57965  0.15006  0.33457  1.0000
  C   C52       1.0  0.54090  0.15793  0.26016  1.0000
  H   H37       1.0  0.61606  0.16132  0.20051  1.0000
  N   N5        1.0  0.55658  0.15595  0.26159  1.0000
  H   H38       1.0  0.53769  0.16255  0.20278  1.0000
  N   N6        1.0  0.63359  0.15630  0.33113  1.0000
  C   C53       1.0  0.83771  0.46336  0.33405  1.0000
  C   C54       1.0  0.83342  0.45173  0.25779  1.0000
  N   N7        1.0  0.83455  0.43556  0.26060  1.0000
  C   C55       1.0  0.83988  0.42968  0.33460  1.0000
  C   C56       1.0  0.83202  0.38307  0.26003  1.0000
  H   H39       1.0  0.82872  0.45489  0.20044  1.0000
  N   N8        1.0  0.83399  0.40073  0.26153  1.0000
  H   H40       1.0  0.82740  0.37525  0.20262  1.0000
  N   N9        1.0  0.83373  0.47742  0.33104  1.0000
  C   C57       1.0  0.52656  0.37442  0.33407  1.0000
  C   C58       1.0  0.53821  0.38175  0.25785  1.0000
  N   N10       1.0  0.55437  0.39905  0.26064  1.0000
  C   C59       1.0  0.56024  0.41028  0.33459  1.0000
  C   C60       1.0  0.60687  0.44900  0.26012  1.0000
  H   H41       1.0  0.53505  0.37389  0.20050  1.0000
  N   N11       1.0  0.58920  0.43333  0.26158  1.0000
  H   H42       1.0  0.61470  0.45221  0.20271  1.0000
  N   N12       1.0  0.51251  0.35638  0.33110  1.0000
  C   C61       1.0  0.96113  0.92248  0.33681  1.0000
  C   C62       1.0  0.95117  0.02876  0.33616  1.0000
  C   C63       1.0  0.06743  0.03871  0.33684  1.0000
  C   C64       1.0  0.92797  0.04571  0.36151  1.0000
  C   C65       1.0  0.92121  0.02640  0.38485  1.0000
  C   C66       1.0  0.93263  0.01797  0.37218  1.0000
  C   C67       1.0  0.94413  0.88233  0.36243  1.0000
  C   C68       1.0  0.96333  0.89491  0.38750  1.0000
  C   C69       1.0  0.97178  0.91475  0.37473  1.0000
  C   C70       1.0  0.10758  0.06186  0.36247  1.0000
  C   C71       1.0  0.09500  0.06847  0.38763  1.0000
  C   C72       1.0  0.07516  0.05707  0.37483  1.0000
  H   H43       1.0  0.90785  0.01824  0.41165  1.0000
  H   H44       1.0  0.92729  0.00398  0.39037  1.0000
  H   H45       1.0  0.98568  0.92342  0.39417  1.0000
  H   H46       1.0  0.97139  0.88974  0.41566  1.0000
  H   H47       1.0  0.10017  0.08170  0.41586  1.0000
  H   H48       1.0  0.06648  0.06230  0.39435  1.0000
  C   C73       1.0  0.01342  0.00792  0.31811  1.0000
  C   C74       1.0  0.00449  0.98778  0.31824  1.0000
  C   C75       1.0  0.98435  0.97649  0.31813  1.0000
  C   C76       1.0  0.97314  0.98542  0.31812  1.0000
  C   C77       1.0  0.98199  0.00556  0.31800  1.0000
  C   C78       1.0  0.00213  0.01676  0.31813  1.0000
  H   H49       1.0  0.95849  0.97723  0.31941  1.0000
  H   H50       1.0  0.01268  0.98132  0.31966  1.0000
  H   H51       1.0  0.00859  0.03142  0.31941  1.0000
  C   C79       1.0  0.04899  0.02798  0.32750  1.0000
  C   C80       1.0  0.03201  0.01832  0.32162  1.0000
  C   C81       1.0  0.96192  0.02105  0.32704  1.0000
  C   C82       1.0  0.97159  0.01374  0.32134  1.0000
  C   C83       1.0  0.97617  0.95791  0.32162  1.0000
  C   C84       1.0  0.96885  0.94092  0.32749  1.0000
  C   C85       1.0  0.12704  0.07320  0.37833  1.0000
  C   C86       1.0  0.93603  0.86287  0.37824  1.0000
  C   C87       1.0  0.91660  0.05379  0.37723  1.0000
  H   H52       1.0  0.90702  0.04851  0.42619  1.0000
  H   H53       1.0  0.94118  0.85858  0.42781  1.0000
  H   H54       1.0  0.13133  0.08264  0.42792  1.0000
  C   C88       1.0  0.35015  0.17055  0.33626  1.0000
  C   C89       1.0  0.46113  0.28687  0.34856  1.0000
  C   C90       1.0  0.47077  0.18541  0.34347  1.0000
  C   C91       1.0  0.48530  0.32719  0.36364  1.0000
  C   C92       1.0  0.46597  0.31818  0.39124  1.0000
  C   C93       1.0  0.45398  0.29826  0.38372  1.0000
  C   C94       1.0  0.30991  0.14718  0.31627  1.0000
  C   C95       1.0  0.32187  0.13904  0.31709  1.0000
  C   C96       1.0  0.34177  0.15056  0.32728  1.0000
  C   C97       1.0  0.50099  0.17715  0.32782  1.0000
  C   C98       1.0  0.50488  0.19605  0.34309  1.0000
  C   C99       1.0  0.48997  0.20015  0.35108  1.0000
  H   H55       1.0  0.46047  0.32604  0.41851  1.0000
  H   H56       1.0  0.44015  0.29219  0.40581  1.0000
  H   H57       1.0  0.35002  0.14420  0.32668  1.0000
  H   H58       1.0  0.31621  0.12460  0.30961  1.0000
  H   H59       1.0  0.51867  0.20711  0.34774  1.0000
  H   H60       1.0  0.49337  0.21406  0.36098  1.0000
  C   C100      1.0  0.43563  0.20348  0.34815  1.0000
  C   C101      1.0  0.41549  0.19232  0.34776  1.0000
  C   C102      1.0  0.40426  0.20123  0.34679  1.0000
  C   C103      1.0  0.41323  0.22139  0.34599  1.0000
  C   C104      1.0  0.43336  0.23262  0.34624  1.0000
  C   C105      1.0  0.44449  0.22362  0.34735  1.0000
  H   H61       1.0  0.40509  0.22790  0.34499  1.0000
  H   H62       1.0  0.40902  0.17766  0.34785  1.0000
  H   H63       1.0  0.45916  0.23178  0.34740  1.0000
  C   C106      1.0  0.45724  0.18971  0.34671  1.0000
  C   C107      1.0  0.44621  0.19548  0.34805  1.0000
  C   C108      1.0  0.45054  0.26831  0.34621  1.0000
  C   C109      1.0  0.44180  0.25123  0.34569  1.0000
  C   C110      1.0  0.38567  0.19088  0.34521  1.0000
  C   C111      1.0  0.36866  0.18126  0.34206  1.0000
  C   C112      1.0  0.51611  0.17389  0.31554  1.0000
  C   C113      1.0  0.29046  0.13562  0.30177  1.0000
  C   C114      1.0  0.49726  0.34666  0.37753  1.0000
  H   H64       1.0  0.49416  0.35307  0.42602  1.0000
  H   H65       1.0  0.28602  0.12415  0.26310  1.0000
  H   H66       1.0  0.52801  0.18426  0.28773  1.0000
  C   C115      1.0  0.81941  0.17971  0.33644  1.0000
  C   C116      1.0  0.70308  0.17438  0.34863  1.0000
  C   C117      1.0  0.80456  0.28547  0.34351  1.0000
  C   C118      1.0  0.66277  0.15825  0.36361  1.0000
  C   C119      1.0  0.67176  0.14791  0.39120  1.0000
  C   C120      1.0  0.69168  0.15583  0.38373  1.0000
  C   C121      1.0  0.84279  0.16284  0.31639  1.0000
  C   C122      1.0  0.85093  0.18294  0.31740  1.0000
  C   C123      1.0  0.83940  0.19132  0.32760  1.0000
  C   C124      1.0  0.81282  0.32393  0.32746  1.0000
  C   C125      1.0  0.79392  0.30893  0.34273  1.0000
  C   C126      1.0  0.78981  0.28992  0.35090  1.0000
  H   H67       1.0  0.66390  0.13456  0.41853  1.0000
  H   H68       1.0  0.69775  0.14807  0.40589  1.0000
  H   H69       1.0  0.84576  0.20592  0.32719  1.0000
  H   H70       1.0  0.86537  0.19172  0.31009  1.0000
  H   H71       1.0  0.78286  0.31167  0.34715  1.0000
  H   H72       1.0  0.77590  0.27942  0.36077  1.0000
  C   C127      1.0  0.78648  0.23225  0.34837  1.0000
  C   C128      1.0  0.79764  0.22328  0.34803  1.0000
  C   C129      1.0  0.78873  0.20313  0.34706  1.0000
  C   C130      1.0  0.76857  0.19194  0.34621  1.0000
  C   C131      1.0  0.75734  0.20084  0.34642  1.0000
  C   C132      1.0  0.76634  0.22098  0.34755  1.0000
  H   H73       1.0  0.76206  0.17729  0.34519  1.0000
  H   H74       1.0  0.81229  0.23145  0.34812  1.0000
  H   H75       1.0  0.75818  0.22748  0.34755  1.0000
  C   C133      1.0  0.80025  0.26763  0.34687  1.0000
  C   C134      1.0  0.79448  0.25083  0.34826  1.0000
  C   C135      1.0  0.72164  0.18233  0.34631  1.0000
  C   C136      1.0  0.73872  0.19067  0.34583  1.0000
  C   C137      1.0  0.79908  0.19489  0.34546  1.0000
  C   C138      1.0  0.80870  0.18750  0.34229  1.0000
  C   C139      1.0  0.81609  0.34230  0.31487  1.0000
  C   C140      1.0  0.85436  0.15496  0.30193  1.0000
  C   C141      1.0  0.64330  0.15075  0.37752  1.0000
  H   H76       1.0  0.63688  0.14124  0.42599  1.0000
  H   H77       1.0  0.86587  0.16203  0.26351  1.0000
  H   H78       1.0  0.80575  0.34383  0.28670  1.0000
  C   C142      1.0  0.81024  0.63977  0.33624  1.0000
  C   C143      1.0  0.81558  0.52879  0.34865  1.0000
  C   C144      1.0  0.70447  0.51915  0.34347  1.0000
  C   C145      1.0  0.83173  0.50463  0.36361  1.0000
  C   C146      1.0  0.84206  0.52395  0.39133  1.0000
  C   C147      1.0  0.83412  0.53594  0.38384  1.0000
  C   C148      1.0  0.82712  0.68002  0.31625  1.0000
  C   C149      1.0  0.80702  0.66806  0.31711  1.0000
  C   C150      1.0  0.79864  0.64816  0.32726  1.0000
  C   C151      1.0  0.66602  0.48894  0.32756  1.0000
  C   C152      1.0  0.68102  0.48505  0.34275  1.0000
  C   C153      1.0  0.70003  0.49995  0.35086  1.0000
  H   H79       1.0  0.85540  0.52945  0.41865  1.0000
  H   H80       1.0  0.84187  0.54976  0.40603  1.0000
  H   H81       1.0  0.78402  0.63991  0.32675  1.0000
  H   H82       1.0  0.79824  0.67373  0.30968  1.0000
  H   H83       1.0  0.67829  0.47125  0.34722  1.0000
  H   H84       1.0  0.71054  0.49655  0.36067  1.0000
  C   C154      1.0  0.75769  0.55430  0.34829  1.0000
  C   C155      1.0  0.76666  0.57443  0.34789  1.0000
  C   C156      1.0  0.78681  0.58567  0.34691  1.0000
  C   C157      1.0  0.79800  0.57670  0.34611  1.0000
  C   C158      1.0  0.78910  0.55657  0.34637  1.0000
  C   C159      1.0  0.76896  0.54543  0.34750  1.0000
  H   H85       1.0  0.81265  0.58483  0.34510  1.0000
  H   H86       1.0  0.75849  0.58091  0.34795  1.0000
  H   H87       1.0  0.76246  0.53077  0.34754  1.0000
  C   C160      1.0  0.72231  0.53268  0.34679  1.0000
  C   C161      1.0  0.73911  0.54372  0.34817  1.0000
  C   C162      1.0  0.80761  0.53939  0.34632  1.0000
  C   C163      1.0  0.79927  0.54812  0.34581  1.0000
  C   C164      1.0  0.79505  0.60425  0.34529  1.0000
  C   C165      1.0  0.80244  0.62127  0.34210  1.0000
  C   C166      1.0  0.64763  0.47382  0.31517  1.0000
  C   C167      1.0  0.83501  0.69946  0.30181  1.0000
  C   C168      1.0  0.83925  0.49267  0.37750  1.0000
  H   H88       1.0  0.84874  0.49575  0.42612  1.0000
  H   H89       1.0  0.82797  0.70391  0.26320  1.0000
  H   H90       1.0  0.64611  0.46194  0.28713  1.0000
  C   C169      1.0  0.25917  0.12952  0.33273  1.0000
  C   C170      1.0  0.24838  0.12853  0.40845  1.0000
  N   N13       1.0  0.22902  0.11915  0.40445  1.0000
  C   C171      1.0  0.21898  0.11058  0.32919  1.0000
  C   C172      1.0  0.16958  0.09077  0.40765  1.0000
  H   H91       1.0  0.25494  0.13459  0.46750  1.0000
  N   N14       1.0  0.18892  0.09982  0.40415  1.0000
  H   H92       1.0  0.16324  0.09035  0.46715  1.0000
  N   N15       1.0  0.27810  0.13897  0.33918  1.0000
  C   C173      1.0  0.86042  0.12973  0.33253  1.0000
  C   C174      1.0  0.86135  0.11986  0.40810  1.0000
  N   N16       1.0  0.87072  0.10988  0.40405  1.0000
  C   C175      1.0  0.87937  0.10848  0.32886  1.0000
  C   C176      1.0  0.89910  0.07881  0.40703  1.0000
  H   H93       1.0  0.85521  0.12027  0.46707  1.0000
  N   N17       1.0  0.89005  0.08910  0.40361  1.0000
  H   H94       1.0  0.89946  0.07282  0.46642  1.0000
  N   N18       1.0  0.85097  0.13922  0.33903  1.0000
  C   C177      1.0  0.86022  0.73075  0.33269  1.0000
  C   C178      1.0  0.87001  0.74154  0.40840  1.0000
  N   N19       1.0  0.88000  0.76090  0.40441  1.0000
  C   C179      1.0  0.88145  0.77094  0.32917  1.0000
  C   C180      1.0  0.91105  0.82034  0.40761  1.0000
  H   H95       1.0  0.86955  0.73498  0.46743  1.0000
  N   N20       1.0  0.90077  0.80099  0.40411  1.0000
  H   H96       1.0  0.91699  0.82667  0.46709  1.0000
  N   N21       1.0  0.85072  0.71181  0.33913  1.0000
  C   C181      1.0  0.58613  0.14533  0.41344  1.0000
  C   C182      1.0  0.60416  0.14648  0.41208  1.0000
  H   H97       1.0  0.60945  0.14403  0.46948  1.0000
  C   C183      1.0  0.56238  0.15045  0.33529  1.0000
  C   C184      1.0  0.52996  0.15477  0.33840  1.0000
  C   C185      1.0  0.53509  0.14825  0.41512  1.0000
  C   C186      1.0  0.55146  0.14619  0.41496  1.0000
  C   C187      1.0  0.55770  0.14094  0.49229  1.0000
  C   C188      1.0  0.57488  0.14048  0.49150  1.0000
  H   H98       1.0  0.55010  0.13797  0.55045  1.0000
  H   H99       1.0  0.57941  0.13721  0.54915  1.0000
  H   H100      1.0  0.52747  0.14604  0.47284  1.0000
  N   N22       1.0  0.51587  0.15874  0.34399  1.0000
  C   C189      1.0  0.84461  0.44089  0.41349  1.0000
  C   C190      1.0  0.84350  0.45779  0.41211  1.0000
  H   H101      1.0  0.84593  0.46551  0.46954  1.0000
  C   C191      1.0  0.83947  0.41202  0.33529  1.0000
  C   C192      1.0  0.83515  0.37527  0.33827  1.0000
  C   C193      1.0  0.84162  0.38689  0.41508  1.0000
  C   C194      1.0  0.84369  0.40532  0.41498  1.0000
  C   C195      1.0  0.84893  0.41681  0.49235  1.0000
  C   C196      1.0  0.84939  0.43444  0.49160  1.0000
  H   H102      1.0  0.85189  0.41217  0.55052  1.0000
  H   H103      1.0  0.85269  0.44225  0.54924  1.0000
  H   H104      1.0  0.84383  0.38147  0.47278  1.0000
  N   N23       1.0  0.83117  0.35721  0.34384  1.0000
  C   C197      1.0  0.54902  0.40382  0.41345  1.0000
  C   C198      1.0  0.53212  0.38580  0.41207  1.0000
  H   H105      1.0  0.52440  0.38052  0.46952  1.0000
  C   C199      1.0  0.57791  0.42753  0.33531  1.0000
  C   C200      1.0  0.61467  0.45993  0.33836  1.0000
  C   C201      1.0  0.60303  0.45481  0.41512  1.0000
  C   C202      1.0  0.58459  0.43845  0.41498  1.0000
  C   C203      1.0  0.57310  0.43222  0.49232  1.0000
  C   C204      1.0  0.55546  0.41505  0.49155  1.0000
  H   H106      1.0  0.57774  0.43982  0.55048  1.0000
  H   H107      1.0  0.54765  0.41054  0.54917  1.0000
  H   H108      1.0  0.60845  0.46244  0.47280  1.0000
  N   N24       1.0  0.63273  0.47403  0.34391  1.0000
