data_image0
_chemical_formula_structural       C5HC5HO2C4HC6HO2C4HC6HO2CNCHNHCNCHNHCNCHNHCNCHNHCNCHNHCNCHNHCNCNCNC18H12CNCNCNC18H12CNCNCNC18H12CNCNCNC18H12CNCNCNC18H12CNCNCNC18H12CNCHNHCNCHNHCNCHNHC4HC6HO2C4HC6HO2C4HC6HO2C4HC6HO2C4HC6HO2C4HC6HO2
_chemical_formula_sum              "C234 H108 O18 N36"
_cell_length_a       76.0278
_cell_length_b       76.0278
_cell_length_c       14.9957
_cell_angle_alpha    90
_cell_angle_beta     90
_cell_angle_gamma    120

_space_group_name_H-M_alt    "P 1"
_space_group_IT_number       1

loop_
  _space_group_symop_operation_xyz
  'x, y, z'

loop_
  _atom_site_type_symbol
  _atom_site_label
  _atom_site_symmetry_multiplicity
  _atom_site_fract_x
  _atom_site_fract_y
  _atom_site_fract_z
  _atom_site_occupancy
  C   C1        1.0  0.01097  0.50733  0.35169  1.0000
  C   C2        1.0  0.01094  0.49643  0.19797  1.0000
  C   C3        1.0  0.05376  0.52821  0.35653  1.0000
  C   C4        1.0  0.02180  0.50712  0.27485  1.0000
  C   C5        1.0  0.04325  0.51763  0.27880  1.0000
  H   H1        1.0  0.05138  0.51774  0.22417  1.0000
  C   C6        1.0  0.98953  0.49662  0.35171  1.0000
  C   C7        1.0  0.94674  0.47475  0.35661  1.0000
  C   C8        1.0  0.95723  0.47466  0.27888  1.0000
  C   C9        1.0  0.97869  0.48558  0.27488  1.0000
  C   C10       1.0  0.98954  0.48574  0.19799  1.0000
  H   H2        1.0  0.94909  0.46663  0.22428  1.0000
  O   O1        1.0  0.97967  0.47554  0.12331  1.0000
  O   O2        1.0  0.02079  0.49609  0.12326  1.0000
  C   C11       1.0  0.47470  0.52811  0.35740  1.0000
  C   C12       1.0  0.49658  0.50724  0.35248  1.0000
  C   C13       1.0  0.48601  0.50752  0.27482  1.0000
  C   C14       1.0  0.47504  0.51800  0.27885  1.0000
  H   H3        1.0  0.46731  0.51843  0.22376  1.0000
  C   C15       1.0  0.50729  0.49651  0.35243  1.0000
  C   C16       1.0  0.52816  0.47460  0.35711  1.0000
  C   C17       1.0  0.51805  0.47499  0.27858  1.0000
  C   C18       1.0  0.50757  0.48596  0.27468  1.0000
  C   C19       1.0  0.49738  0.48664  0.19698  1.0000
  C   C20       1.0  0.48668  0.49734  0.19705  1.0000
  H   H4        1.0  0.51850  0.46729  0.22340  1.0000
  O   O3        1.0  0.49756  0.47697  0.12137  1.0000
  O   O4        1.0  0.47699  0.49753  0.12151  1.0000
  C   C21       1.0  0.47478  0.94667  0.35629  1.0000
  C   C22       1.0  0.49667  0.98946  0.35152  1.0000
  C   C23       1.0  0.48556  0.97864  0.27480  1.0000
  C   C24       1.0  0.47464  0.95718  0.27870  1.0000
  H   H5        1.0  0.46658  0.94906  0.22414  1.0000
  C   C25       1.0  0.50739  0.01090  0.35157  1.0000
  C   C26       1.0  0.52830  0.05370  0.35656  1.0000
  C   C27       1.0  0.51764  0.04320  0.27894  1.0000
  C   C28       1.0  0.50711  0.02175  0.27491  1.0000
  C   C29       1.0  0.49635  0.01090  0.19813  1.0000
  C   C30       1.0  0.48565  0.98951  0.19807  1.0000
  H   H6        1.0  0.51770  0.05135  0.22444  1.0000
  O   O5        1.0  0.49594  0.02077  0.12361  1.0000
  O   O6        1.0  0.47539  0.97965  0.12349  1.0000
  C   C31       1.0  0.23046  0.53219  0.24015  1.0000
  N   N1        1.0  0.24685  0.52969  0.24485  1.0000
  C   C32       1.0  0.30207  0.53218  0.24015  1.0000
  H   H7        1.0  0.22607  0.53451  0.17888  1.0000
  N   N2        1.0  0.28318  0.52968  0.24483  1.0000
  H   H8        1.0  0.30877  0.53446  0.17888  1.0000
  C   C33       1.0  0.46842  0.69843  0.24254  1.0000
  N   N3        1.0  0.47097  0.71733  0.24728  1.0000
  C   C34       1.0  0.46849  0.77007  0.24292  1.0000
  H   H9        1.0  0.46618  0.69176  0.18122  1.0000
  N   N4        1.0  0.47100  0.75369  0.24748  1.0000
  H   H10       1.0  0.46620  0.77449  0.18166  1.0000
  C   C35       1.0  0.30203  0.76995  0.24065  1.0000
  N   N5        1.0  0.28313  0.75359  0.24572  1.0000
  C   C36       1.0  0.23035  0.69841  0.24223  1.0000
  H   H11       1.0  0.30869  0.77428  0.17928  1.0000
  N   N6        1.0  0.24674  0.71730  0.24650  1.0000
  H   H12       1.0  0.22588  0.69166  0.18109  1.0000
  C   C37       1.0  0.77006  0.46835  0.24278  1.0000
  N   N7        1.0  0.75370  0.47089  0.24740  1.0000
  C   C38       1.0  0.69848  0.46842  0.24264  1.0000
  H   H13       1.0  0.77450  0.46610  0.18150  1.0000
  N   N8        1.0  0.71737  0.47093  0.24733  1.0000
  H   H14       1.0  0.69179  0.46613  0.18135  1.0000
  C   C39       1.0  0.53227  0.30198  0.24007  1.0000
  N   N9        1.0  0.52978  0.28310  0.24475  1.0000
  C   C40       1.0  0.53232  0.23040  0.24008  1.0000
  H   H15       1.0  0.53460  0.30869  0.17880  1.0000
  N   N10       1.0  0.52980  0.24677  0.24475  1.0000
  H   H16       1.0  0.53462  0.22598  0.17882  1.0000
  C   C41       1.0  0.69854  0.23031  0.24223  1.0000
  N   N11       1.0  0.71742  0.24670  0.24647  1.0000
  C   C42       1.0  0.77006  0.30199  0.24055  1.0000
  H   H17       1.0  0.69180  0.22582  0.18106  1.0000
  N   N12       1.0  0.75372  0.28308  0.24562  1.0000
  H   H18       1.0  0.77443  0.30863  0.17914  1.0000
  C   C43       1.0  0.17147  0.60149  0.33342  1.0000
  N   N13       1.0  0.15105  0.59096  0.34670  1.0000
  C   C44       1.0  0.14043  0.57028  0.35209  1.0000
  N   N14       1.0  0.15099  0.56021  0.34427  1.0000
  C   C45       1.0  0.17141  0.57008  0.33125  1.0000
  N   N15       1.0  0.18112  0.59063  0.32576  1.0000
  C   C46       1.0  0.11885  0.55953  0.35917  1.0000
  C   C47       1.0  0.10808  0.56943  0.38520  1.0000
  C   C48       1.0  0.08670  0.55904  0.38669  1.0000
  C   C49       1.0  0.07534  0.53846  0.36046  1.0000
  C   C50       1.0  0.08601  0.52843  0.33553  1.0000
  C   C51       1.0  0.10736  0.53872  0.33569  1.0000
  C   C52       1.0  0.18279  0.62301  0.32613  1.0000
  C   C53       1.0  0.17645  0.63560  0.36802  1.0000
  C   C54       1.0  0.18874  0.65694  0.36582  1.0000
  C   C55       1.0  0.20738  0.66631  0.31891  1.0000
  C   C56       1.0  0.21341  0.65373  0.27498  1.0000
  C   C57       1.0  0.20140  0.63250  0.27893  1.0000
  C   C58       1.0  0.18268  0.55986  0.32312  1.0000
  C   C59       1.0  0.20133  0.56906  0.27616  1.0000
  C   C60       1.0  0.21338  0.55988  0.27226  1.0000
  C   C61       1.0  0.20738  0.54126  0.31613  1.0000
  C   C62       1.0  0.18870  0.53192  0.36270  1.0000
  C   C63       1.0  0.17635  0.54091  0.36476  1.0000
  H   H19       1.0  0.18405  0.66560  0.39925  1.0000
  H   H20       1.0  0.16327  0.62935  0.40416  1.0000
  H   H21       1.0  0.22707  0.65987  0.24255  1.0000
  H   H22       1.0  0.20662  0.62407  0.24726  1.0000
  H   H23       1.0  0.20654  0.58274  0.24483  1.0000
  H   H24       1.0  0.22708  0.56747  0.24017  1.0000
  H   H25       1.0  0.16317  0.53395  0.40089  1.0000
  H   H26       1.0  0.18402  0.51857  0.39611  1.0000
  H   H27       1.0  0.11437  0.53092  0.31520  1.0000
  H   H28       1.0  0.07830  0.51348  0.31676  1.0000
  H   H29       1.0  0.07950  0.56688  0.40397  1.0000
  H   H30       1.0  0.11568  0.58445  0.40276  1.0000
  C   C64       1.0  0.39902  0.57003  0.33089  1.0000
  N   N16       1.0  0.40955  0.56016  0.34414  1.0000
  C   C65       1.0  0.43019  0.57022  0.35185  1.0000
  N   N17       1.0  0.44025  0.59089  0.34614  1.0000
  C   C66       1.0  0.43038  0.60143  0.33263  1.0000
  N   N18       1.0  0.40987  0.59057  0.32509  1.0000
  C   C67       1.0  0.44101  0.55946  0.35929  1.0000
  C   C68       1.0  0.43159  0.53855  0.33761  1.0000
  C   C69       1.0  0.44262  0.52824  0.33768  1.0000
  C   C70       1.0  0.46340  0.53837  0.36130  1.0000
  C   C71       1.0  0.47275  0.55905  0.38584  1.0000
  C   C72       1.0  0.46178  0.56946  0.38395  1.0000
  C   C73       1.0  0.37752  0.55982  0.32292  1.0000
  C   C74       1.0  0.36490  0.54089  0.36474  1.0000
  C   C75       1.0  0.34357  0.53189  0.36269  1.0000
  C   C76       1.0  0.33422  0.54123  0.31616  1.0000
  C   C77       1.0  0.34683  0.55985  0.27227  1.0000
  C   C78       1.0  0.36806  0.56901  0.27601  1.0000
  C   C79       1.0  0.44060  0.62294  0.32531  1.0000
  C   C80       1.0  0.43149  0.63246  0.27816  1.0000
  C   C81       1.0  0.44070  0.65368  0.27441  1.0000
  C   C82       1.0  0.45931  0.66625  0.31849  1.0000
  C   C83       1.0  0.46857  0.65685  0.36524  1.0000
  C   C84       1.0  0.45952  0.63552  0.36727  1.0000
  H   H31       1.0  0.33490  0.51853  0.39606  1.0000
  H   H32       1.0  0.37113  0.53391  0.40068  1.0000
  H   H33       1.0  0.34071  0.56743  0.24015  1.0000
  H   H34       1.0  0.37652  0.58269  0.24463  1.0000
  H   H35       1.0  0.41784  0.62404  0.24647  1.0000
  H   H36       1.0  0.43319  0.65984  0.24207  1.0000
  H   H37       1.0  0.46644  0.62925  0.40337  1.0000
  H   H38       1.0  0.48191  0.66550  0.39878  1.0000
  H   H39       1.0  0.46929  0.58455  0.40014  1.0000
  H   H40       1.0  0.48785  0.56693  0.40201  1.0000
  H   H41       1.0  0.43534  0.51322  0.31999  1.0000
  H   H42       1.0  0.41670  0.53067  0.31814  1.0000
  C   C85       1.0  0.43039  0.82896  0.33313  1.0000
  N   N19       1.0  0.44027  0.84937  0.34641  1.0000
  C   C86       1.0  0.43022  0.86000  0.35175  1.0000
  N   N20       1.0  0.40958  0.84943  0.34390  1.0000
  C   C87       1.0  0.39904  0.82902  0.33088  1.0000
  N   N21       1.0  0.40987  0.81931  0.32544  1.0000
  C   C88       1.0  0.44103  0.88157  0.35885  1.0000
  C   C89       1.0  0.46172  0.89236  0.38489  1.0000
  C   C90       1.0  0.47269  0.91373  0.38639  1.0000
  C   C91       1.0  0.46346  0.92508  0.36019  1.0000
  C   C92       1.0  0.44276  0.91441  0.33528  1.0000
  C   C93       1.0  0.43171  0.89306  0.33541  1.0000
  C   C94       1.0  0.44059  0.81765  0.32599  1.0000
  C   C95       1.0  0.45952  0.82400  0.36796  1.0000
  C   C96       1.0  0.46857  0.81171  0.36594  1.0000
  C   C97       1.0  0.45932  0.79306  0.31916  1.0000
  C   C98       1.0  0.44071  0.78701  0.27513  1.0000
  C   C99       1.0  0.43148  0.79901  0.27890  1.0000
  C   C100      1.0  0.37755  0.81776  0.32282  1.0000
  C   C101      1.0  0.36806  0.79909  0.27603  1.0000
  C   C102      1.0  0.34683  0.78705  0.27226  1.0000
  C   C103      1.0  0.33425  0.79309  0.31612  1.0000
  C   C104      1.0  0.34362  0.81180  0.36248  1.0000
  C   C105      1.0  0.36495  0.82413  0.36441  1.0000
  H   H43       1.0  0.48192  0.81643  0.39943  1.0000
  H   H44       1.0  0.46644  0.83719  0.40403  1.0000
  H   H45       1.0  0.43319  0.77334  0.24279  1.0000
  H   H46       1.0  0.41784  0.79378  0.24720  1.0000
  H   H47       1.0  0.37652  0.79385  0.24475  1.0000
  H   H48       1.0  0.34069  0.77333  0.24033  1.0000
  H   H49       1.0  0.37119  0.83732  0.40043  1.0000
  H   H50       1.0  0.33496  0.81650  0.39589  1.0000
  H   H51       1.0  0.41690  0.88605  0.31492  1.0000
  H   H52       1.0  0.43551  0.92211  0.31655  1.0000
  H   H53       1.0  0.48773  0.92094  0.40367  1.0000
  H   H54       1.0  0.46914  0.88476  0.40243  1.0000
  C   C106      1.0  0.82912  0.39901  0.33077  1.0000
  N   N22       1.0  0.84953  0.40956  0.34392  1.0000
  C   C107      1.0  0.86008  0.43019  0.35177  1.0000
  N   N23       1.0  0.84945  0.44023  0.34631  1.0000
  C   C108      1.0  0.82904  0.43035  0.33290  1.0000
  N   N24       1.0  0.81940  0.40983  0.32521  1.0000
  C   C109      1.0  0.88166  0.44101  0.35901  1.0000
  C   C110      1.0  0.89315  0.43166  0.33622  1.0000
  C   C111      1.0  0.91450  0.44271  0.33615  1.0000
  C   C112      1.0  0.92516  0.46344  0.36057  1.0000
  C   C113      1.0  0.91381  0.47271  0.38622  1.0000
  C   C114      1.0  0.89244  0.46173  0.38457  1.0000
  C   C115      1.0  0.81787  0.37751  0.32273  1.0000
  C   C116      1.0  0.82422  0.36492  0.36450  1.0000
  C   C117      1.0  0.81191  0.34359  0.36248  1.0000
  C   C118      1.0  0.79322  0.33421  0.31600  1.0000
  C   C119      1.0  0.78718  0.34679  0.27213  1.0000
  C   C120      1.0  0.79921  0.36802  0.27584  1.0000
  C   C121      1.0  0.81771  0.44053  0.32573  1.0000
  C   C122      1.0  0.79909  0.43142  0.27859  1.0000
  C   C123      1.0  0.78706  0.44062  0.27486  1.0000
  C   C124      1.0  0.79310  0.45923  0.31892  1.0000
  C   C125      1.0  0.81175  0.46849  0.36569  1.0000
  C   C126      1.0  0.82405  0.45945  0.36776  1.0000
  H   H55       1.0  0.81662  0.33494  0.39589  1.0000
  H   H56       1.0  0.83743  0.37117  0.40043  1.0000
  H   H57       1.0  0.77347  0.34065  0.24010  1.0000
  H   H58       1.0  0.79397  0.37647  0.24452  1.0000
  H   H59       1.0  0.79387  0.41778  0.24688  1.0000
  H   H60       1.0  0.77339  0.43310  0.24251  1.0000
  H   H61       1.0  0.83724  0.46639  0.40375  1.0000
  H   H62       1.0  0.81645  0.48184  0.39919  1.0000
  H   H63       1.0  0.88484  0.46918  0.40161  1.0000
  H   H64       1.0  0.92102  0.48777  0.40303  1.0000
  H   H65       1.0  0.92221  0.43545  0.31780  1.0000
  H   H66       1.0  0.88614  0.41682  0.31608  1.0000
  C   C127      1.0  0.60148  0.43029  0.33284  1.0000
  N   N25       1.0  0.59093  0.44015  0.34625  1.0000
  C   C128      1.0  0.57026  0.43008  0.35179  1.0000
  N   N26       1.0  0.56020  0.40944  0.34403  1.0000
  C   C129      1.0  0.57009  0.39892  0.33089  1.0000
  N   N27       1.0  0.59064  0.40978  0.32524  1.0000
  C   C130      1.0  0.55949  0.44089  0.35909  1.0000
  C   C131      1.0  0.56941  0.46158  0.38497  1.0000
  C   C132      1.0  0.55901  0.47255  0.38674  1.0000
  C   C133      1.0  0.53841  0.46329  0.36090  1.0000
  C   C134      1.0  0.52835  0.44259  0.33603  1.0000
  C   C135      1.0  0.53866  0.43155  0.33602  1.0000
  C   C136      1.0  0.62299  0.44052  0.32557  1.0000
  C   C137      1.0  0.63556  0.45945  0.36751  1.0000
  C   C138      1.0  0.65690  0.46851  0.36548  1.0000
  C   C139      1.0  0.66631  0.45927  0.31870  1.0000
  C   C140      1.0  0.65375  0.44066  0.27466  1.0000
  C   C141      1.0  0.63252  0.43142  0.27844  1.0000
  C   C142      1.0  0.55989  0.37743  0.32289  1.0000
  C   C143      1.0  0.56910  0.36798  0.27602  1.0000
  C   C144      1.0  0.55994  0.34675  0.27220  1.0000
  C   C145      1.0  0.54132  0.33413  0.31606  1.0000
  C   C146      1.0  0.53197  0.34347  0.36256  1.0000
  C   C147      1.0  0.54095  0.36480  0.36459  1.0000
  H   H67       1.0  0.66553  0.48186  0.39899  1.0000
  H   H68       1.0  0.62929  0.46636  0.40362  1.0000
  H   H69       1.0  0.65992  0.43314  0.24233  1.0000
  H   H70       1.0  0.62411  0.41777  0.24676  1.0000
  H   H71       1.0  0.58278  0.37645  0.24467  1.0000
  H   H72       1.0  0.56754  0.34064  0.24016  1.0000
  H   H73       1.0  0.53397  0.37101  0.40058  1.0000
  H   H74       1.0  0.51861  0.33478  0.39594  1.0000
  H   H75       1.0  0.53085  0.41672  0.31564  1.0000
  H   H76       1.0  0.51340  0.43536  0.31742  1.0000
  H   H77       1.0  0.56684  0.48760  0.40393  1.0000
  H   H78       1.0  0.58445  0.46902  0.40221  1.0000
  C   C148      1.0  0.57021  0.17135  0.33133  1.0000
  N   N28       1.0  0.56034  0.15093  0.34438  1.0000
  C   C149      1.0  0.57041  0.14037  0.35218  1.0000
  N   N29       1.0  0.59109  0.15099  0.34675  1.0000
  C   C150      1.0  0.60162  0.17141  0.33344  1.0000
  N   N30       1.0  0.59076  0.18105  0.32580  1.0000
  C   C151      1.0  0.55965  0.11879  0.35927  1.0000
  C   C152      1.0  0.53881  0.10730  0.33635  1.0000
  C   C153      1.0  0.52851  0.08595  0.33617  1.0000
  C   C154      1.0  0.53857  0.07528  0.36057  1.0000
  C   C155      1.0  0.55918  0.08662  0.38632  1.0000
  C   C156      1.0  0.56958  0.10800  0.38481  1.0000
  C   C157      1.0  0.55998  0.18261  0.32321  1.0000
  C   C158      1.0  0.54103  0.17628  0.36484  1.0000
  C   C159      1.0  0.53202  0.18860  0.36264  1.0000
  C   C160      1.0  0.54136  0.20729  0.31616  1.0000
  C   C161      1.0  0.56000  0.21332  0.27244  1.0000
  C   C162      1.0  0.56918  0.20127  0.27632  1.0000
  C   C163      1.0  0.62313  0.18273  0.32616  1.0000
  C   C164      1.0  0.63262  0.20134  0.27893  1.0000
  C   C165      1.0  0.65385  0.21336  0.27498  1.0000
  C   C166      1.0  0.66644  0.20733  0.31892  1.0000
  C   C167      1.0  0.65707  0.18870  0.36583  1.0000
  C   C168      1.0  0.63573  0.17641  0.36810  1.0000
  H   H79       1.0  0.51864  0.18390  0.39590  1.0000
  H   H80       1.0  0.53404  0.16307  0.40074  1.0000
  H   H81       1.0  0.56759  0.22702  0.24036  1.0000
  H   H82       1.0  0.58288  0.20650  0.24507  1.0000
  H   H83       1.0  0.62419  0.20655  0.24724  1.0000
  H   H84       1.0  0.65999  0.22702  0.24252  1.0000
  H   H85       1.0  0.62949  0.16322  0.40416  1.0000
  H   H86       1.0  0.66573  0.18401  0.39925  1.0000
  H   H87       1.0  0.58462  0.11559  0.40195  1.0000
  H   H88       1.0  0.56703  0.07941  0.40313  1.0000
  H   H89       1.0  0.51354  0.07825  0.31776  1.0000
  H   H90       1.0  0.53099  0.11432  0.31622  1.0000
  C   C169      1.0  0.04204  0.52810  0.42982  1.0000
  N   N31       1.0  0.02148  0.51775  0.42521  1.0000
  C   C170      1.0  0.95847  0.48638  0.42983  1.0000
  H   H91       1.0  0.04878  0.53531  0.48804  1.0000
  N   N32       1.0  0.97903  0.49656  0.42521  1.0000
  H   H92       1.0  0.95174  0.48686  0.48808  1.0000
  C   C171      1.0  0.48588  0.52759  0.43148  1.0000
  N   N33       1.0  0.49608  0.51722  0.42680  1.0000
  C   C172      1.0  0.52761  0.48576  0.43129  1.0000
  H   H93       1.0  0.48603  0.53447  0.49024  1.0000
  N   N34       1.0  0.51727  0.49598  0.42671  1.0000
  H   H94       1.0  0.53449  0.48588  0.49004  1.0000
  C   C173      1.0  0.48645  0.95839  0.42945  1.0000
  N   N35       1.0  0.49665  0.97895  0.42489  1.0000
  C   C174      1.0  0.52826  0.04196  0.42963  1.0000
  H   H95       1.0  0.48699  0.95165  0.48758  1.0000
  N   N36       1.0  0.51789  0.02140  0.42497  1.0000
  H   H96       1.0  0.53553  0.04868  0.48778  1.0000
  C   C175      1.0  0.22104  0.53359  0.31892  1.0000
  C   C176      1.0  0.25476  0.52772  0.32292  1.0000
  C   C177      1.0  0.24538  0.52785  0.40467  1.0000
  C   C178      1.0  0.22828  0.53058  0.40120  1.0000
  H   H97       1.0  0.22222  0.53227  0.45932  1.0000
  C   C179      1.0  0.27330  0.52771  0.32290  1.0000
  C   C180      1.0  0.31289  0.53354  0.31888  1.0000
  C   C181      1.0  0.30264  0.53056  0.40115  1.0000
  C   C182      1.0  0.28281  0.52783  0.40465  1.0000
  C   C183      1.0  0.27281  0.52671  0.48587  1.0000
  C   C184      1.0  0.25425  0.52672  0.48588  1.0000
  H   H98       1.0  0.31039  0.53224  0.45928  1.0000
  O   O7        1.0  0.28139  0.52678  0.56517  1.0000
  O   O8        1.0  0.24576  0.52679  0.56520  1.0000
  C   C185      1.0  0.46704  0.68759  0.32122  1.0000
  C   C186      1.0  0.47293  0.72719  0.32540  1.0000
  C   C187      1.0  0.47277  0.71766  0.40711  1.0000
  C   C188      1.0  0.47000  0.69781  0.40353  1.0000
  H   H99       1.0  0.46832  0.69006  0.46166  1.0000
  C   C189      1.0  0.47295  0.74575  0.32550  1.0000
  C   C190      1.0  0.46708  0.77948  0.32172  1.0000
  C   C191      1.0  0.47009  0.77221  0.40394  1.0000
  C   C192      1.0  0.47280  0.75510  0.40731  1.0000
  C   C193      1.0  0.47389  0.74620  0.48848  1.0000
  C   C194      1.0  0.47388  0.72763  0.48839  1.0000
  H   H100      1.0  0.46833  0.77821  0.46214  1.0000
  O   O9        1.0  0.47381  0.75468  0.56783  1.0000
  O   O10       1.0  0.47377  0.71903  0.56766  1.0000
  C   C195      1.0  0.31291  0.77944  0.31921  1.0000
  C   C196      1.0  0.27330  0.74577  0.32397  1.0000
  C   C197      1.0  0.28288  0.75521  0.40553  1.0000
  C   C198      1.0  0.30272  0.77229  0.40166  1.0000
  H   H101      1.0  0.31052  0.77840  0.45965  1.0000
  C   C199      1.0  0.25473  0.72724  0.32436  1.0000
  C   C200      1.0  0.22097  0.68766  0.32120  1.0000
  C   C201      1.0  0.22831  0.69798  0.40326  1.0000
  C   C202      1.0  0.24542  0.71782  0.40633  1.0000
  C   C203      1.0  0.25437  0.72788  0.48734  1.0000
  C   C204      1.0  0.27294  0.74642  0.48694  1.0000
  H   H102      1.0  0.22230  0.69028  0.46155  1.0000
  O   O11       1.0  0.24592  0.71937  0.56683  1.0000
  O   O12       1.0  0.28158  0.75498  0.56607  1.0000
  C   C205      1.0  0.77949  0.46696  0.32154  1.0000
  C   C206      1.0  0.74578  0.47286  0.32544  1.0000
  C   C207      1.0  0.75513  0.47270  0.40723  1.0000
  C   C208      1.0  0.77221  0.46993  0.40377  1.0000
  H   H103      1.0  0.77826  0.46825  0.46196  1.0000
  C   C209      1.0  0.72724  0.47288  0.32540  1.0000
  C   C210      1.0  0.68765  0.46702  0.32138  1.0000
  C   C211      1.0  0.69790  0.47003  0.40365  1.0000
  C   C212      1.0  0.71772  0.47274  0.40715  1.0000
  C   C213      1.0  0.72770  0.47383  0.48839  1.0000
  C   C214      1.0  0.74625  0.47382  0.48843  1.0000
  H   H104      1.0  0.69013  0.46828  0.46180  1.0000
  O   O13       1.0  0.71912  0.47376  0.56768  1.0000
  O   O14       1.0  0.75473  0.47371  0.56776  1.0000
  C   C215      1.0  0.53365  0.31280  0.31884  1.0000
  C   C216      1.0  0.52780  0.27321  0.32282  1.0000
  C   C217      1.0  0.52791  0.28271  0.40458  1.0000
  C   C218      1.0  0.53063  0.30254  0.40111  1.0000
  H   H105      1.0  0.53231  0.31029  0.45924  1.0000
  C   C219      1.0  0.52781  0.25467  0.32280  1.0000
  C   C220      1.0  0.53367  0.22093  0.31882  1.0000
  C   C221      1.0  0.53065  0.22818  0.40107  1.0000
  C   C222      1.0  0.52792  0.24528  0.40456  1.0000
  C   C223      1.0  0.52677  0.25415  0.48577  1.0000
  C   C224      1.0  0.52677  0.27270  0.48578  1.0000
  H   H106      1.0  0.53233  0.22211  0.45921  1.0000
  O   O15       1.0  0.52683  0.24563  0.56508  1.0000
  O   O16       1.0  0.52682  0.28126  0.56510  1.0000
  C   C225      1.0  0.68778  0.22093  0.32120  1.0000
  C   C226      1.0  0.72737  0.25469  0.32432  1.0000
  C   C227      1.0  0.71794  0.24539  0.40631  1.0000
  C   C228      1.0  0.69810  0.22829  0.40325  1.0000
  H   H107      1.0  0.69041  0.22228  0.46158  1.0000
  C   C229      1.0  0.74590  0.27326  0.32388  1.0000
  C   C230      1.0  0.77957  0.31288  0.31908  1.0000
  C   C231      1.0  0.77243  0.30268  0.40154  1.0000
  C   C232      1.0  0.75534  0.28285  0.40543  1.0000
  C   C233      1.0  0.74654  0.27292  0.48686  1.0000
  C   C234      1.0  0.72800  0.25435  0.48730  1.0000
  H   H108      1.0  0.77851  0.31049  0.45954  1.0000
  O   O17       1.0  0.75511  0.28157  0.56598  1.0000
  O   O18       1.0  0.71949  0.24592  0.56682  1.0000
