data_image0
_chemical_formula_structural       C6H2C2H2C2H2C2H2CH2CH2CNCNCNC18H12CNCNCNC18H12C4NC2NC2H2C4NC2NC2H2C3NCNC2H2
_chemical_formula_sum              "C78 H42 N12"
_cell_length_a       29.5225
_cell_length_b       29.5224
_cell_length_c       14.9728
_cell_angle_alpha    90
_cell_angle_beta     90
_cell_angle_gamma    120

_space_group_name_H-M_alt    "P 1"
_space_group_IT_number       1

loop_
  _space_group_symop_operation_xyz
  'x, y, z'

loop_
  _atom_site_type_symbol
  _atom_site_label
  _atom_site_symmetry_multiplicity
  _atom_site_fract_x
  _atom_site_fract_y
  _atom_site_fract_z
  _atom_site_occupancy
  C   C1        1.0  0.02115  0.53415  0.26510  1.0000
  C   C2        1.0  0.02545  0.46451  0.06237  1.0000
  C   C3        1.0  0.02282  0.50817  0.41875  1.0000
  C   C4        1.0  0.02412  0.48621  0.57240  1.0000
  C   C5        1.0  0.46040  0.49514  0.26658  1.0000
  C   C6        1.0  0.48795  0.46770  0.26511  1.0000
  H   H1        1.0  0.48794  0.44901  0.20750  1.0000
  H   H2        1.0  0.44124  0.49564  0.20991  1.0000
  C   C7        1.0  0.53437  0.56491  0.06386  1.0000
  C   C8        1.0  0.56189  0.53734  0.06237  1.0000
  H   H3        1.0  0.53283  0.58276  0.12138  1.0000
  H   H4        1.0  0.58023  0.53522  0.11882  1.0000
  C   C9        1.0  0.46851  0.97342  0.26473  1.0000
  C   C10       1.0  0.49600  0.02840  0.26473  1.0000
  H   H5        1.0  0.49595  0.04755  0.20776  1.0000
  H   H6        1.0  0.44931  0.95427  0.20773  1.0000
  C   C11       1.0  0.53972  0.97333  0.06235  1.0000
  C   C12       1.0  0.56726  0.02842  0.06237  1.0000
  H   H7        1.0  0.53781  0.95339  0.11937  1.0000
  H   H8        1.0  0.58529  0.04835  0.11939  1.0000
  C   C13       1.0  0.96617  0.50668  0.26655  1.0000
  H   H9        1.0  0.94651  0.50620  0.20989  1.0000
  H   H10       1.0  0.03984  0.55281  0.20747  1.0000
  C   C14       1.0  0.97036  0.43694  0.06386  1.0000
  H   H11       1.0  0.04592  0.46663  0.11881  1.0000
  H   H12       1.0  0.95097  0.41909  0.12137  1.0000
  C   C15       1.0  0.35535  0.72144  0.33365  1.0000
  N   N1        1.0  0.37990  0.69282  0.33590  1.0000
  C   C16       1.0  0.35357  0.63957  0.33558  1.0000
  N   N2        1.0  0.30043  0.61510  0.33356  1.0000
  C   C17       1.0  0.27351  0.64135  0.33146  1.0000
  N   N3        1.0  0.30218  0.69445  0.33151  1.0000
  C   C18       1.0  0.38030  0.61048  0.33753  1.0000
  C   C19       1.0  0.43492  0.63536  0.35297  1.0000
  C   C20       1.0  0.46121  0.60663  0.35543  1.0000
  C   C21       1.0  0.43382  0.55198  0.34160  1.0000
  C   C22       1.0  0.37949  0.52687  0.32519  1.0000
  C   C23       1.0  0.35319  0.55559  0.32389  1.0000
  C   C24       1.0  0.38374  0.77726  0.33450  1.0000
  C   C25       1.0  0.43841  0.80559  0.35020  1.0000
  C   C26       1.0  0.46615  0.86063  0.35261  1.0000
  C   C27       1.0  0.44024  0.88932  0.33838  1.0000
  C   C28       1.0  0.38591  0.86149  0.32154  1.0000
  C   C29       1.0  0.35816  0.80648  0.32024  1.0000
  C   C30       1.0  0.21771  0.61453  0.33127  1.0000
  C   C31       1.0  0.18997  0.64171  0.31810  1.0000
  C   C32       1.0  0.13495  0.61545  0.31973  1.0000
  C   C33       1.0  0.10577  0.56109  0.33595  1.0000
  C   C34       1.0  0.13299  0.53357  0.34852  1.0000
  C   C35       1.0  0.18797  0.55981  0.34573  1.0000
  H   H13       1.0  0.50562  0.87965  0.36409  1.0000
  H   H14       1.0  0.45877  0.78646  0.36118  1.0000
  H   H15       1.0  0.36590  0.88109  0.31151  1.0000
  H   H16       1.0  0.31880  0.78807  0.30827  1.0000
  H   H17       1.0  0.20949  0.68121  0.30716  1.0000
  H   H18       1.0  0.11638  0.63656  0.31100  1.0000
  H   H19       1.0  0.20598  0.53831  0.35603  1.0000
  H   H20       1.0  0.11294  0.49406  0.35963  1.0000
  H   H21       1.0  0.31379  0.53568  0.31197  1.0000
  H   H22       1.0  0.35847  0.48727  0.31525  1.0000
  H   H23       1.0  0.50073  0.62611  0.36644  1.0000
  H   H24       1.0  0.45639  0.67486  0.36337  1.0000
  C   C36       1.0  0.63482  0.28037  0.33370  1.0000
  N   N4        1.0  0.60864  0.30736  0.33157  1.0000
  C   C37       1.0  0.63307  0.36046  0.33151  1.0000
  N   N5        1.0  0.68624  0.38671  0.33359  1.0000
  C   C38       1.0  0.71491  0.36224  0.33560  1.0000
  N   N6        1.0  0.68799  0.30899  0.33593  1.0000
  C   C39       1.0  0.60409  0.38728  0.33131  1.0000
  C   C40       1.0  0.54916  0.36011  0.31816  1.0000
  C   C41       1.0  0.52042  0.38638  0.31981  1.0000
  C   C42       1.0  0.54560  0.44073  0.33597  1.0000
  C   C43       1.0  0.60035  0.46825  0.34854  1.0000
  C   C44       1.0  0.62908  0.44200  0.34579  1.0000
  C   C45       1.0  0.60738  0.22455  0.33456  1.0000
  C   C46       1.0  0.55259  0.19533  0.32031  1.0000
  C   C47       1.0  0.52532  0.14032  0.32160  1.0000
  C   C48       1.0  0.55183  0.11249  0.33843  1.0000
  C   C49       1.0  0.60643  0.14118  0.35263  1.0000
  C   C50       1.0  0.63373  0.19622  0.35025  1.0000
  C   C51       1.0  0.77072  0.39133  0.33753  1.0000
  C   C52       1.0  0.80048  0.36645  0.35293  1.0000
  C   C53       1.0  0.85548  0.39519  0.35538  1.0000
  C   C54       1.0  0.88275  0.44985  0.34158  1.0000
  C   C55       1.0  0.85353  0.47495  0.32517  1.0000
  C   C56       1.0  0.79850  0.44623  0.32392  1.0000
  H   H25       1.0  0.48571  0.12072  0.31159  1.0000
  H   H26       1.0  0.53163  0.21374  0.30835  1.0000
  H   H27       1.0  0.62687  0.12216  0.36412  1.0000
  H   H28       1.0  0.67321  0.21534  0.36121  1.0000
  H   H29       1.0  0.78244  0.32695  0.36331  1.0000
  H   H30       1.0  0.87554  0.37572  0.36637  1.0000
  H   H31       1.0  0.77901  0.46614  0.31204  1.0000
  H   H32       1.0  0.87209  0.51455  0.31531  1.0000
  H   H33       1.0  0.66859  0.46350  0.35604  1.0000
  H   H34       1.0  0.61981  0.50777  0.35963  1.0000
  H   H35       1.0  0.48073  0.36527  0.31103  1.0000
  H   H36       1.0  0.52919  0.32061  0.30721  1.0000
  C   C57       1.0  0.51658  0.46725  0.34040  1.0000
  C   C58       1.0  0.51558  0.49367  0.41876  1.0000
  C   C59       1.0  0.48772  0.52147  0.42024  1.0000
  C   C60       1.0  0.46054  0.52308  0.34335  1.0000
  N   N7        1.0  0.48685  0.54496  0.49805  1.0000
  C   C61       1.0  0.51114  0.54334  0.57391  1.0000
  C   C62       1.0  0.53884  0.51563  0.57242  1.0000
  N   N8        1.0  0.53977  0.49208  0.49520  1.0000
  C   C63       1.0  0.50894  0.56792  0.65308  1.0000
  C   C64       1.0  0.56415  0.51264  0.65007  1.0000
  H   H37       1.0  0.48890  0.58788  0.65468  1.0000
  H   H38       1.0  0.58408  0.49258  0.64946  1.0000
  C   C65       1.0  0.52411  0.05686  0.34088  1.0000
  C   C66       1.0  0.52292  0.02874  0.41843  1.0000
  C   C67       1.0  0.49508  0.97306  0.41841  1.0000
  C   C68       1.0  0.46815  0.94495  0.34086  1.0000
  N   N9        1.0  0.49366  0.94798  0.49565  1.0000
  C   C69       1.0  0.51749  0.97318  0.57225  1.0000
  C   C70       1.0  0.54520  0.02860  0.57226  1.0000
  N   N10       1.0  0.54658  0.05381  0.49567  1.0000
  C   C71       1.0  0.51475  0.94563  0.65074  1.0000
  C   C72       1.0  0.57000  0.05613  0.65077  1.0000
  H   H39       1.0  0.49470  0.90563  0.65123  1.0000
  H   H40       1.0  0.58995  0.09614  0.65127  1.0000
  C   C73       1.0  0.93838  0.47875  0.34334  1.0000
  C   C74       1.0  0.96715  0.48035  0.42023  1.0000
  C   C75       1.0  0.05023  0.53458  0.34038  1.0000
  N   N11       1.0  0.04860  0.50976  0.49519  1.0000
  C   C76       1.0  0.96871  0.45851  0.57390  1.0000
  N   N12       1.0  0.94279  0.45688  0.49804  1.0000
  C   C77       1.0  0.05241  0.48920  0.65006  1.0000
  C   C78       1.0  0.94192  0.43393  0.65308  1.0000
  H   H41       1.0  0.09241  0.50927  0.64946  1.0000
  H   H42       1.0  0.90193  0.41397  0.65467  1.0000
