data_image0
_chemical_formula_structural       C4H2C4H2N2C4H2C4H2N2C4H2C4H2N2C2HC6H3CHC2HC6H3CHC2HC6H3CHC2HC6H3CHC2HC6H3CHC2HC6H3CHC2HC2HN2C2HC2HN2C2HC2HN2C2NC2NHCH3CHC2NC2NHCH3CHC2NC2NHCH3CHC2NC2NHCH3CHC2NC2NHCH3CHC2NC2NHCH3CH
_chemical_formula_sum              "C126 H78 N24"
_cell_length_a       38.9309
_cell_length_b       38.9308
_cell_length_c       15.0111
_cell_angle_alpha    90
_cell_angle_beta     90
_cell_angle_gamma    120

_space_group_name_H-M_alt    "P 1"
_space_group_IT_number       1

loop_
  _space_group_symop_operation_xyz
  'x, y, z'

loop_
  _atom_site_type_symbol
  _atom_site_label
  _atom_site_symmetry_multiplicity
  _atom_site_fract_x
  _atom_site_fract_y
  _atom_site_fract_z
  _atom_site_occupancy
  C   C1        1.0  0.97807  0.48897  0.32052  1.0000
  C   C2        1.0  0.89329  0.44805  0.31783  1.0000
  C   C3        1.0  0.91330  0.42646  0.31102  1.0000
  C   C4        1.0  0.95505  0.44712  0.30815  1.0000
  H   H1        1.0  0.96826  0.43054  0.29719  1.0000
  H   H2        1.0  0.86289  0.43326  0.31570  1.0000
  C   C5        1.0  0.02121  0.50982  0.32194  1.0000
  C   C6        1.0  0.04438  0.55163  0.30924  1.0000
  C   C7        1.0  0.08607  0.57236  0.31531  1.0000
  C   C8        1.0  0.10599  0.55082  0.32576  1.0000
  H   H3        1.0  0.03132  0.56815  0.29577  1.0000
  H   H4        1.0  0.13640  0.56562  0.32569  1.0000
  N   N1        1.0  0.10636  0.61165  0.30870  1.0000
  N   N2        1.0  0.89299  0.38715  0.30523  1.0000
  C   C9        1.0  0.50995  0.48870  0.32080  1.0000
  C   C10       1.0  0.55092  0.44486  0.32010  1.0000
  C   C11       1.0  0.57250  0.48644  0.31241  1.0000
  C   C12       1.0  0.55181  0.50748  0.30855  1.0000
  H   H5        1.0  0.56838  0.53721  0.29689  1.0000
  H   H6        1.0  0.56572  0.42925  0.31855  1.0000
  C   C13       1.0  0.48906  0.51096  0.32117  1.0000
  C   C14       1.0  0.44721  0.49223  0.30883  1.0000
  C   C15       1.0  0.42650  0.51324  0.31354  1.0000
  C   C16       1.0  0.44808  0.55478  0.32220  1.0000
  H   H7        1.0  0.43065  0.46256  0.29653  1.0000
  H   H8        1.0  0.43328  0.57040  0.32122  1.0000
  N   N3        1.0  0.38719  0.49424  0.30737  1.0000
  N   N4        1.0  0.61181  0.50542  0.30636  1.0000
  C   C17       1.0  0.51039  0.02117  0.32066  1.0000
  C   C18       1.0  0.55417  0.10598  0.32011  1.0000
  C   C19       1.0  0.51259  0.08596  0.31251  1.0000
  C   C20       1.0  0.49158  0.04422  0.30857  1.0000
  H   H9        1.0  0.46185  0.03107  0.29695  1.0000
  H   H10       1.0  0.56976  0.13639  0.31858  1.0000
  C   C21       1.0  0.48818  0.97800  0.32079  1.0000
  C   C22       1.0  0.50698  0.95494  0.30871  1.0000
  C   C23       1.0  0.48599  0.91321  0.31302  1.0000
  C   C24       1.0  0.44443  0.89318  0.32096  1.0000
  H   H11       1.0  0.53668  0.96807  0.29684  1.0000
  H   H12       1.0  0.42884  0.86277  0.31967  1.0000
  N   N5        1.0  0.50502  0.89293  0.30700  1.0000
  N   N6        1.0  0.49357  0.10625  0.30656  1.0000
  C   C25       1.0  0.26924  0.47335  0.25848  1.0000
  C   C26       1.0  0.30888  0.48241  0.26960  1.0000
  H   H13       1.0  0.32834  0.49540  0.21781  1.0000
  C   C27       1.0  0.20482  0.45351  0.32733  1.0000
  C   C28       1.0  0.13125  0.45052  0.32365  1.0000
  C   C29       1.0  0.15455  0.46033  0.24554  1.0000
  C   C30       1.0  0.19176  0.46231  0.24657  1.0000
  C   C31       1.0  0.21700  0.47501  0.17154  1.0000
  C   C32       1.0  0.25550  0.48062  0.17755  1.0000
  H   H14       1.0  0.20820  0.48191  0.11321  1.0000
  H   H15       1.0  0.27388  0.49144  0.12342  1.0000
  H   H16       1.0  0.14560  0.46861  0.18924  1.0000
  C   C33       1.0  0.09900  0.45593  0.32688  1.0000
  H   H17       1.0  0.07244  0.43411  0.30883  1.0000
  C   C34       1.0  0.52572  0.79579  0.25848  1.0000
  C   C35       1.0  0.51669  0.82639  0.26959  1.0000
  H   H18       1.0  0.50362  0.83281  0.21787  1.0000
  C   C36       1.0  0.54579  0.75138  0.32725  1.0000
  C   C37       1.0  0.54858  0.68071  0.32403  1.0000
  C   C38       1.0  0.53843  0.69395  0.24603  1.0000
  C   C39       1.0  0.53663  0.72927  0.24678  1.0000
  C   C40       1.0  0.52372  0.74166  0.17185  1.0000
  C   C41       1.0  0.51821  0.77462  0.17774  1.0000
  H   H19       1.0  0.51661  0.72582  0.11370  1.0000
  H   H20       1.0  0.50725  0.78208  0.12369  1.0000
  H   H21       1.0  0.52992  0.67655  0.18999  1.0000
  C   C42       1.0  0.54314  0.64303  0.32799  1.0000
  H   H22       1.0  0.56605  0.63874  0.32055  1.0000
  C   C43       1.0  0.20331  0.72953  0.25891  1.0000
  C   C44       1.0  0.17280  0.68989  0.27042  1.0000
  H   H23       1.0  0.16642  0.67030  0.21894  1.0000
  C   C45       1.0  0.24762  0.79417  0.32711  1.0000
  C   C46       1.0  0.31835  0.86757  0.32369  1.0000
  C   C47       1.0  0.30519  0.84401  0.24590  1.0000
  C   C48       1.0  0.26982  0.80693  0.24674  1.0000
  C   C49       1.0  0.25746  0.78151  0.17203  1.0000
  C   C50       1.0  0.22450  0.74304  0.17814  1.0000
  H   H24       1.0  0.27342  0.79007  0.11402  1.0000
  H   H25       1.0  0.21716  0.72448  0.12440  1.0000
  H   H26       1.0  0.32262  0.85280  0.18991  1.0000
  C   C51       1.0  0.35602  0.89982  0.32767  1.0000
  H   H27       1.0  0.36020  0.92710  0.32389  1.0000
  C   C52       1.0  0.72961  0.52576  0.25831  1.0000
  C   C53       1.0  0.68999  0.51681  0.26923  1.0000
  H   H28       1.0  0.67049  0.50361  0.21757  1.0000
  C   C54       1.0  0.79406  0.54592  0.32732  1.0000
  C   C55       1.0  0.86743  0.54843  0.32495  1.0000
  C   C56       1.0  0.84394  0.53794  0.24700  1.0000
  C   C57       1.0  0.80693  0.53636  0.24726  1.0000
  C   C58       1.0  0.78164  0.52327  0.17234  1.0000
  C   C59       1.0  0.74323  0.51795  0.17788  1.0000
  H   H29       1.0  0.79031  0.51590  0.11446  1.0000
  H   H30       1.0  0.72480  0.50685  0.12387  1.0000
  H   H31       1.0  0.85280  0.52922  0.19124  1.0000
  C   C60       1.0  0.89969  0.54301  0.32967  1.0000
  H   H32       1.0  0.92691  0.56621  0.33377  1.0000
  C   C61       1.0  0.47316  0.20360  0.25846  1.0000
  C   C62       1.0  0.48211  0.17294  0.26946  1.0000
  H   H33       1.0  0.49525  0.16658  0.21777  1.0000
  C   C63       1.0  0.45305  0.24796  0.32733  1.0000
  C   C64       1.0  0.45046  0.31875  0.32457  1.0000
  C   C65       1.0  0.46079  0.30563  0.24660  1.0000
  C   C66       1.0  0.46246  0.27025  0.24710  1.0000
  C   C67       1.0  0.47547  0.25796  0.17219  1.0000
  C   C68       1.0  0.48085  0.22491  0.17788  1.0000
  H   H34       1.0  0.48274  0.27391  0.11418  1.0000
  H   H35       1.0  0.49189  0.21752  0.12387  1.0000
  H   H36       1.0  0.46945  0.32314  0.19073  1.0000
  C   C69       1.0  0.45588  0.35642  0.32898  1.0000
  H   H37       1.0  0.43270  0.36053  0.32815  1.0000
  C   C70       1.0  0.79558  0.26934  0.25772  1.0000
  C   C71       1.0  0.82627  0.30895  0.26848  1.0000
  H   H38       1.0  0.83258  0.32838  0.21669  1.0000
  C   C72       1.0  0.75117  0.20500  0.32701  1.0000
  C   C73       1.0  0.68031  0.13167  0.32469  1.0000
  C   C74       1.0  0.69340  0.15503  0.24659  1.0000
  C   C75       1.0  0.72883  0.19204  0.24686  1.0000
  C   C76       1.0  0.74113  0.21724  0.17176  1.0000
  C   C77       1.0  0.77424  0.25563  0.17720  1.0000
  H   H39       1.0  0.72512  0.20851  0.11384  1.0000
  H   H40       1.0  0.78159  0.27402  0.12312  1.0000
  H   H41       1.0  0.67589  0.14611  0.19071  1.0000
  C   C78       1.0  0.64264  0.09943  0.32918  1.0000
  H   H42       1.0  0.63855  0.07214  0.32905  1.0000
  C   C79       1.0  0.95627  0.50917  0.33136  1.0000
  C   C80       1.0  0.91446  0.48949  0.32691  1.0000
  H   H43       1.0  0.97053  0.53889  0.34298  1.0000
  C   C81       1.0  0.08472  0.50937  0.33447  1.0000
  C   C82       1.0  0.04286  0.48966  0.33591  1.0000
  H   H44       1.0  0.02849  0.45997  0.34816  1.0000
  N   N7        1.0  0.10621  0.49164  0.33744  1.0000
  N   N8        1.0  0.89297  0.50722  0.32687  1.0000
  C   C83       1.0  0.48978  0.44674  0.33246  1.0000
  C   C84       1.0  0.50947  0.42461  0.32891  1.0000
  H   H45       1.0  0.46005  0.43129  0.34405  1.0000
  C   C85       1.0  0.48953  0.57501  0.33092  1.0000
  C   C86       1.0  0.50923  0.55286  0.33368  1.0000
  H   H46       1.0  0.53894  0.56826  0.34552  1.0000
  N   N9        1.0  0.50725  0.61423  0.33223  1.0000
  N   N10       1.0  0.49175  0.38538  0.32933  1.0000
  C   C87       1.0  0.55235  0.04298  0.33229  1.0000
  C   C88       1.0  0.57445  0.08481  0.32876  1.0000
  H   H47       1.0  0.56783  0.02874  0.34377  1.0000
  C   C89       1.0  0.42414  0.91436  0.32945  1.0000
  C   C90       1.0  0.44624  0.95620  0.33267  1.0000
  H   H48       1.0  0.43076  0.97045  0.34421  1.0000
  N   N11       1.0  0.38491  0.89283  0.33008  1.0000
  N   N12       1.0  0.61368  0.10633  0.32912  1.0000
  C   C91       1.0  0.32286  0.47733  0.35295  1.0000
  C   C92       1.0  0.29511  0.46082  0.42414  1.0000
  N   N13       1.0  0.25734  0.45298  0.41085  1.0000
  C   C93       1.0  0.24340  0.45887  0.33291  1.0000
  C   C94       1.0  0.14522  0.44102  0.40118  1.0000
  N   N14       1.0  0.18108  0.44316  0.40050  1.0000
  H   H49       1.0  0.12986  0.43472  0.45984  1.0000
  C   C95       1.0  0.30375  0.45214  0.51489  1.0000
  H   H50       1.0  0.33348  0.45628  0.52117  1.0000
  H   H51       1.0  0.28268  0.42132  0.53178  1.0000
  H   H52       1.0  0.30058  0.47140  0.56298  1.0000
  C   C96       1.0  0.36337  0.49437  0.36675  1.0000
  H   H53       1.0  0.37453  0.50983  0.42267  1.0000
  C   C97       1.0  0.52199  0.84562  0.35279  1.0000
  C   C98       1.0  0.53864  0.83448  0.42388  1.0000
  N   N15       1.0  0.54649  0.80455  0.41060  1.0000
  C   C99       1.0  0.54043  0.78460  0.33277  1.0000
  C   C100      1.0  0.55868  0.70453  0.40108  1.0000
  N   N16       1.0  0.55650  0.73823  0.40025  1.0000
  H   H54       1.0  0.56520  0.69564  0.45968  1.0000
  C   C101      1.0  0.54750  0.85193  0.51449  1.0000
  H   H55       1.0  0.54332  0.87749  0.52077  1.0000
  H   H56       1.0  0.57837  0.86176  0.53107  1.0000
  H   H57       1.0  0.52837  0.82955  0.56282  1.0000
  C   C102      1.0  0.50502  0.86914  0.36662  1.0000
  H   H58       1.0  0.48959  0.86489  0.42257  1.0000
  C   C103      1.0  0.15353  0.67614  0.35366  1.0000
  C   C104      1.0  0.16461  0.70408  0.42438  1.0000
  N   N17       1.0  0.19448  0.74186  0.41074  1.0000
  C   C105      1.0  0.21442  0.75560  0.33287  1.0000
  C   C106      1.0  0.29441  0.85404  0.40058  1.0000
  N   N18       1.0  0.26069  0.81819  0.39988  1.0000
  H   H59       1.0  0.30320  0.86959  0.45902  1.0000
  C   C107      1.0  0.14721  0.69564  0.51503  1.0000
  H   H60       1.0  0.12166  0.66590  0.52154  1.0000
  H   H61       1.0  0.13737  0.71670  0.53135  1.0000
  H   H62       1.0  0.16962  0.69900  0.56339  1.0000
  C   C108      1.0  0.13020  0.63565  0.36796  1.0000
  H   H63       1.0  0.13443  0.62467  0.42423  1.0000
  C   C109      1.0  0.67607  0.52231  0.35224  1.0000
  C   C110      1.0  0.70385  0.53909  0.42330  1.0000
  N   N19       1.0  0.74162  0.54689  0.41019  1.0000
  C   C111      1.0  0.75551  0.54065  0.33257  1.0000
  C   C112      1.0  0.85383  0.55907  0.40140  1.0000
  N   N20       1.0  0.81799  0.55697  0.40025  1.0000
  H   H64       1.0  0.86930  0.56593  0.45997  1.0000
  C   C113      1.0  0.69522  0.54802  0.51381  1.0000
  H   H65       1.0  0.66547  0.54384  0.51995  1.0000
  H   H66       1.0  0.71626  0.57890  0.53029  1.0000
  H   H67       1.0  0.69845  0.52892  0.56229  1.0000
  C   C114      1.0  0.63557  0.50535  0.36598  1.0000
  H   H68       1.0  0.62437  0.48996  0.42196  1.0000
  C   C115      1.0  0.47666  0.15359  0.35255  1.0000
  C   C116      1.0  0.45996  0.16467  0.42363  1.0000
  N   N21       1.0  0.45216  0.19463  0.41043  1.0000
  C   C117      1.0  0.45834  0.21469  0.33272  1.0000
  C   C118      1.0  0.44004  0.29470  0.40130  1.0000
  N   N22       1.0  0.44215  0.26096  0.40029  1.0000
  H   H69       1.0  0.43331  0.30342  0.45987  1.0000
  C   C119      1.0  0.45104  0.14714  0.51416  1.0000
  H   H70       1.0  0.45522  0.12158  0.52035  1.0000
  H   H71       1.0  0.42017  0.13731  0.53066  1.0000
  H   H72       1.0  0.47015  0.16948  0.56260  1.0000
  C   C120      1.0  0.49361  0.13003  0.36626  1.0000
  H   H73       1.0  0.50904  0.13425  0.42218  1.0000
  C   C121      1.0  0.84564  0.32297  0.35153  1.0000
  C   C122      1.0  0.83451  0.29528  0.42282  1.0000
  N   N23       1.0  0.80453  0.25751  0.40984  1.0000
  C   C123      1.0  0.78447  0.24353  0.33217  1.0000
  C   C124      1.0  0.70442  0.14536  0.40133  1.0000
  N   N24       1.0  0.73818  0.18117  0.40011  1.0000
  H   H74       1.0  0.69571  0.12996  0.45998  1.0000
  C   C125      1.0  0.85199  0.30403  0.51341  1.0000
  H   H75       1.0  0.87756  0.33377  0.51944  1.0000
  H   H76       1.0  0.86178  0.28299  0.53026  1.0000
  H   H77       1.0  0.82962  0.30089  0.56167  1.0000
  C   C126      1.0  0.86915  0.36349  0.36496  1.0000
  H   H78       1.0  0.86495  0.37479  0.42078  1.0000
