data_image0
_chemical_formula_structural       C14H12C7NC12H12C2NC3NC3NC15H14C2H4C2H4C2H4C2H4C2H4C2H4C3NC2NC5NC3NC17H14CNC2NC4NC18H14C2NC19H12C4NC2NHCHC4NC2NHCHC4NC2NHCHC4NC2NHCHC4NC2NHCHC4NC2NHCH
_chemical_formula_sum              "C186 H114 N24"
_cell_length_a       41.9095
_cell_length_b       41.9095
_cell_length_c       15.0346
_cell_angle_alpha    90.0372
_cell_angle_beta     89.9628
_cell_angle_gamma    120

_space_group_name_H-M_alt    "P 1"
_space_group_IT_number       1

loop_
  _space_group_symop_operation_xyz
  'x, y, z'

loop_
  _atom_site_type_symbol
  _atom_site_label
  _atom_site_symmetry_multiplicity
  _atom_site_fract_x
  _atom_site_fract_y
  _atom_site_fract_z
  _atom_site_occupancy
  C   C1        1.0  0.94834  0.54804  0.31668  1.0000
  C   C2        1.0  0.09694  0.53529  0.31824  1.0000
  C   C3        1.0  0.10909  0.57367  0.31620  1.0000
  C   C4        1.0  0.14591  0.63512  0.31169  1.0000
  C   C5        1.0  0.14572  0.60222  0.31404  1.0000
  C   C6        1.0  0.15768  0.75576  0.27567  1.0000
  C   C7        1.0  0.13014  0.71857  0.26682  1.0000
  C   C8        1.0  0.12455  0.52464  0.32057  1.0000
  C   C9        1.0  0.17947  0.52703  0.25704  1.0000
  C   C10       1.0  0.14962  0.53329  0.24954  1.0000
  C   C11       1.0  0.92753  0.40317  0.26675  1.0000
  C   C12       1.0  0.90018  0.36592  0.27556  1.0000
  C   C13       1.0  0.90786  0.58829  0.24928  1.0000
  C   C14       1.0  0.87788  0.59434  0.25667  1.0000
  H   H1        1.0  0.85863  0.58402  0.20711  1.0000
  H   H2        1.0  0.90965  0.57479  0.19440  1.0000
  H   H3        1.0  0.99543  0.66514  0.32944  1.0000
  H   H4        1.0  0.94523  0.41084  0.21382  1.0000
  H   H5        1.0  0.89973  0.34789  0.22908  1.0000
  H   H6        1.0  0.06200  0.45659  0.33008  1.0000
  H   H7        1.0  0.16935  0.66028  0.30877  1.0000
  H   H8        1.0  0.16908  0.60034  0.31376  1.0000
  H   H9        1.0  0.14793  0.54677  0.19456  1.0000
  H   H10       1.0  0.19871  0.53718  0.20742  1.0000
  H   H11       1.0  0.11256  0.71097  0.21369  1.0000
  H   H12       1.0  0.15838  0.77383  0.22904  1.0000
  C   C15       1.0  0.43656  0.45004  0.32718  1.0000
  C   C16       1.0  0.44366  0.50689  0.32475  1.0000
  C   C17       1.0  0.54085  0.49195  0.31612  1.0000
  C   C18       1.0  0.61244  0.61214  0.32506  1.0000
  C   C19       1.0  0.61953  0.66900  0.32742  1.0000
  C   C20       1.0  0.55363  0.65331  0.31786  1.0000
  C   C21       1.0  0.51525  0.62710  0.31594  1.0000
  N   N1        1.0  0.49863  0.58989  0.31889  1.0000
  C   C22       1.0  0.45380  0.60245  0.31144  1.0000
  C   C23       1.0  0.48670  0.63517  0.31359  1.0000
  C   C24       1.0  0.33315  0.49356  0.27548  1.0000
  C   C25       1.0  0.37033  0.50320  0.26659  1.0000
  C   C26       1.0  0.56429  0.69158  0.32019  1.0000
  C   C27       1.0  0.58015  0.76665  0.33145  1.0000
  C   C28       1.0  0.56194  0.74410  0.25661  1.0000
  C   C29       1.0  0.55564  0.70797  0.24918  1.0000
  C   C30       1.0  0.68573  0.61596  0.26660  1.0000
  C   C31       1.0  0.72298  0.62584  0.27538  1.0000
  C   C32       1.0  0.50060  0.41118  0.24881  1.0000
  C   C33       1.0  0.49457  0.37516  0.25624  1.0000
  H   H13       1.0  0.50488  0.36620  0.20667  1.0000
  H   H14       1.0  0.51409  0.42644  0.19390  1.0000
  H   H15       1.0  0.42377  0.42197  0.32935  1.0000
  H   H16       1.0  0.67806  0.62594  0.21363  1.0000
  H   H17       1.0  0.74101  0.64339  0.22892  1.0000
  H   H18       1.0  0.63234  0.69707  0.32943  1.0000
  H   H19       1.0  0.42864  0.60072  0.30812  1.0000
  H   H20       1.0  0.48858  0.66041  0.31314  1.0000
  H   H21       1.0  0.54219  0.69279  0.19414  1.0000
  H   H22       1.0  0.55177  0.75316  0.20702  1.0000
  H   H23       1.0  0.37792  0.49316  0.21353  1.0000
  H   H24       1.0  0.31506  0.47612  0.22896  1.0000
  C   C34       1.0  0.63889  0.07821  0.32709  1.0000
  C   C35       1.0  0.58205  0.02844  0.32449  1.0000
  N   N2        1.0  0.58005  0.05971  0.31824  1.0000
  C   C36       1.0  0.62318  0.12841  0.31772  1.0000
  C   C37       1.0  0.59696  0.14057  0.31589  1.0000
  C   C38       1.0  0.47676  0.09194  0.32468  1.0000
  N   N3        1.0  0.47875  0.06067  0.31824  1.0000
  C   C39       1.0  0.41991  0.04217  0.32713  1.0000
  C   C40       1.0  0.43562  0.99197  0.31775  1.0000
  C   C41       1.0  0.46183  0.97981  0.31584  1.0000
  N   N4        1.0  0.49905  0.00040  0.31872  1.0000
  C   C42       1.0  0.48649  0.94300  0.31130  1.0000
  C   C43       1.0  0.45376  0.94318  0.31345  1.0000
  C   C44       1.0  0.56339  0.96283  0.33052  1.0000
  C   C45       1.0  0.58060  0.90450  0.34398  1.0000
  C   C46       1.0  0.59540  0.93125  0.27514  1.0000
  C   C47       1.0  0.58575  0.95879  0.26627  1.0000
  C   C48       1.0  0.39735  0.96435  0.32015  1.0000
  C   C49       1.0  0.32229  0.90515  0.33157  1.0000
  C   C50       1.0  0.34484  0.90941  0.25676  1.0000
  C   C51       1.0  0.38093  0.93929  0.24911  1.0000
  C   C52       1.0  0.47293  0.16139  0.26628  1.0000
  C   C53       1.0  0.46305  0.18876  0.27510  1.0000
  C   C54       1.0  0.67777  0.18108  0.24886  1.0000
  C   C55       1.0  0.73634  0.21554  0.33129  1.0000
  C   C56       1.0  0.71379  0.21108  0.25641  1.0000
  H   H25       1.0  0.72279  0.23031  0.20682  1.0000
  H   H26       1.0  0.66255  0.17930  0.19390  1.0000
  H   H27       1.0  0.66697  0.09350  0.32898  1.0000
  H   H28       1.0  0.55740  0.05989  0.31041  1.0000
  H   H29       1.0  0.50141  0.06049  0.31055  1.0000
  H   H30       1.0  0.46296  0.14373  0.21327  1.0000
  H   H31       1.0  0.44553  0.18925  0.22858  1.0000
  H   H32       1.0  0.39184  0.02690  0.32925  1.0000
  H   H33       1.0  0.48823  0.91958  0.30783  1.0000
  H   H34       1.0  0.42853  0.91982  0.31296  1.0000
  H   H35       1.0  0.39613  0.94091  0.19418  1.0000
  H   H36       1.0  0.33577  0.89014  0.20722  1.0000
  H   H37       1.0  0.59577  0.97638  0.21318  1.0000
  H   H38       1.0  0.61283  0.93058  0.22859  1.0000
  C   C57       1.0  0.23186  0.49914  0.26285  1.0000
  C   C58       1.0  0.26564  0.49985  0.26533  1.0000
  H   H39       1.0  0.27712  0.49971  0.20545  1.0000
  H   H40       1.0  0.22001  0.49636  0.20191  1.0000
  H   H41       1.0  0.23832  0.54035  0.03419  1.0000
  H   H42       1.0  0.20752  0.49195  0.03814  1.0000
  C   C59       1.0  0.58981  0.82437  0.26249  1.0000
  C   C60       1.0  0.58912  0.85746  0.26499  1.0000
  H   H43       1.0  0.58927  0.86905  0.20511  1.0000
  H   H44       1.0  0.59258  0.81527  0.20155  1.0000
  H   H45       1.0  0.54854  0.78965  0.03381  1.0000
  H   H46       1.0  0.59693  0.80720  0.03777  1.0000
  C   C61       1.0  0.26458  0.85700  0.26277  1.0000
  C   C62       1.0  0.23149  0.82323  0.26535  1.0000
  H   H47       1.0  0.21989  0.81172  0.20550  1.0000
  H   H48       1.0  0.27366  0.86882  0.20179  1.0000
  H   H49       1.0  0.29943  0.85073  0.03407  1.0000
  H   H50       1.0  0.28183  0.88153  0.03801  1.0000
  C   C63       1.0  0.82494  0.62155  0.26268  1.0000
  C   C64       1.0  0.79094  0.62039  0.26521  1.0000
  H   H51       1.0  0.77944  0.62044  0.20534  1.0000
  H   H52       1.0  0.83687  0.62451  0.20174  1.0000
  H   H53       1.0  0.81873  0.57991  0.03362  1.0000
  H   H54       1.0  0.84909  0.62838  0.03800  1.0000
  C   C65       1.0  0.46741  0.29504  0.26231  1.0000
  C   C66       1.0  0.46854  0.26219  0.26485  1.0000
  H   H55       1.0  0.46848  0.25060  0.20498  1.0000
  H   H56       1.0  0.46440  0.30396  0.20138  1.0000
  H   H57       1.0  0.50900  0.33053  0.03326  1.0000
  H   H58       1.0  0.46053  0.31239  0.03763  1.0000
  C   C67       1.0  0.79393  0.26396  0.26261  1.0000
  C   C68       1.0  0.82676  0.29797  0.26522  1.0000
  H   H59       1.0  0.83839  0.30946  0.20537  1.0000
  H   H60       1.0  0.78501  0.25204  0.20167  1.0000
  H   H61       1.0  0.75832  0.27009  0.03351  1.0000
  H   H62       1.0  0.77643  0.23972  0.03790  1.0000
  C   C69       1.0  0.01071  0.65235  0.32750  1.0000
  C   C70       1.0  0.04854  0.67086  0.33306  1.0000
  C   C71       1.0  0.06048  0.64526  0.32497  1.0000
  N   N5        1.0  0.02921  0.61200  0.31875  1.0000
  C   C72       1.0  0.99823  0.61463  0.32145  1.0000
  C   C73       1.0  0.96051  0.58643  0.31838  1.0000
  N   N6        1.0  0.96893  0.53141  0.31953  1.0000
  C   C74       1.0  0.94793  0.49422  0.31824  1.0000
  C   C75       1.0  0.91152  0.48658  0.31230  1.0000
  C   C76       1.0  0.91171  0.51949  0.31454  1.0000
  C   C77       1.0  0.95939  0.46752  0.32364  1.0000
  C   C78       1.0  0.99696  0.47647  0.32520  1.0000
  N   N7        1.0  0.02823  0.50973  0.31879  1.0000
  C   C79       1.0  0.05920  0.50709  0.32150  1.0000
  C   C80       1.0  0.04672  0.46939  0.32775  1.0000
  C   C81       1.0  0.00890  0.45089  0.33363  1.0000
  N   N8        1.0  0.08850  0.59029  0.31912  1.0000
  C   C82       1.0  0.10950  0.62748  0.31776  1.0000
  C   C83       1.0  0.09804  0.65418  0.32342  1.0000
  C   C84       1.0  0.12609  0.69221  0.33109  1.0000
  C   C85       1.0  0.15113  0.70422  0.40296  1.0000
  C   C86       1.0  0.18071  0.74056  0.40652  1.0000
  C   C87       1.0  0.18445  0.76775  0.34447  1.0000
  C   C88       1.0  0.12835  0.50639  0.39531  1.0000
  C   C89       1.0  0.15610  0.49689  0.39831  1.0000
  C   C90       1.0  0.18375  0.50877  0.33182  1.0000
  C   C91       1.0  0.93136  0.42947  0.33104  1.0000
  C   C92       1.0  0.87333  0.35377  0.34427  1.0000
  C   C93       1.0  0.87678  0.38090  0.40621  1.0000
  C   C94       1.0  0.90619  0.41734  0.40270  1.0000
  C   C95       1.0  0.93288  0.59707  0.32041  1.0000
  C   C96       1.0  0.92896  0.61534  0.39503  1.0000
  C   C97       1.0  0.90105  0.62461  0.39795  1.0000
  C   C98       1.0  0.87338  0.61248  0.33149  1.0000
  H   H63       1.0  0.90100  0.63981  0.45094  1.0000
  H   H64       1.0  0.94685  0.62260  0.44745  1.0000
  H   H65       1.0  0.06416  0.69875  0.34039  1.0000
  H   H66       1.0  0.02902  0.58915  0.31128  1.0000
  H   H67       1.0  0.02841  0.53255  0.31067  1.0000
  H   H68       1.0  0.88836  0.52138  0.31415  1.0000
  H   H69       1.0  0.88809  0.46143  0.30909  1.0000
  H   H70       1.0  0.90764  0.43563  0.44995  1.0000
  H   H71       1.0  0.85720  0.37510  0.45362  1.0000
  H   H72       1.0  0.99329  0.42302  0.34132  1.0000
  H   H73       1.0  0.11043  0.49921  0.44767  1.0000
  H   H74       1.0  0.15595  0.48159  0.45123  1.0000
  H   H75       1.0  0.20025  0.74622  0.45392  1.0000
  H   H76       1.0  0.14957  0.68586  0.45008  1.0000
  C   C99       1.0  0.41807  0.46937  0.33314  1.0000
  N   N9        1.0  0.47692  0.50888  0.31845  1.0000
  C   C100      1.0  0.47427  0.47527  0.32110  1.0000
  C   C101      1.0  0.50247  0.46574  0.31786  1.0000
  N   N10       1.0  0.55748  0.52916  0.31916  1.0000
  C   C102      1.0  0.59468  0.54536  0.31796  1.0000
  C   C103      1.0  0.60232  0.51658  0.31196  1.0000
  C   C104      1.0  0.56941  0.48387  0.31403  1.0000
  C   C105      1.0  0.62138  0.58352  0.32351  1.0000
  N   N11       1.0  0.57918  0.61016  0.31864  1.0000
  C   C106      1.0  0.58182  0.64377  0.32122  1.0000
  C   C107      1.0  0.63802  0.64967  0.33349  1.0000
  C   C108      1.0  0.46144  0.57369  0.31752  1.0000
  C   C109      1.0  0.43473  0.53553  0.32312  1.0000
  C   C110      1.0  0.39671  0.52556  0.33082  1.0000
  C   C111      1.0  0.38472  0.53865  0.40268  1.0000
  C   C112      1.0  0.34838  0.53188  0.40629  1.0000
  C   C113      1.0  0.32117  0.50838  0.34432  1.0000
  C   C114      1.0  0.58255  0.71367  0.39491  1.0000
  C   C115      1.0  0.59204  0.75091  0.39793  1.0000
  C   C116      1.0  0.65943  0.59353  0.33090  1.0000
  C   C117      1.0  0.73512  0.61119  0.34414  1.0000
  C   C118      1.0  0.70799  0.58756  0.40612  1.0000
  C   C119      1.0  0.67155  0.58053  0.40259  1.0000
  C   C120      1.0  0.49183  0.42747  0.31992  1.0000
  C   C121      1.0  0.47359  0.40533  0.39457  1.0000
  C   C122      1.0  0.46433  0.36815  0.39755  1.0000
  C   C123      1.0  0.47645  0.35258  0.33109  1.0000
  H   H77       1.0  0.44914  0.35294  0.45057  1.0000
  H   H78       1.0  0.46635  0.41599  0.44701  1.0000
  H   H79       1.0  0.39017  0.45710  0.34033  1.0000
  H   H80       1.0  0.49975  0.53152  0.31042  1.0000
  H   H81       1.0  0.55636  0.58751  0.31076  1.0000
  H   H82       1.0  0.56752  0.45863  0.31363  1.0000
  H   H83       1.0  0.62747  0.51830  0.30885  1.0000
  H   H84       1.0  0.65324  0.56368  0.44975  1.0000
  H   H85       1.0  0.71377  0.57375  0.45345  1.0000
  H   H86       1.0  0.66591  0.66195  0.34079  1.0000
  H   H87       1.0  0.58972  0.70294  0.44728  1.0000
  H   H88       1.0  0.60733  0.76609  0.45086  1.0000
  H   H89       1.0  0.34272  0.54579  0.45368  1.0000
  H   H90       1.0  0.40309  0.55549  0.44977  1.0000
  C   C124      1.0  0.61957  0.04039  0.33281  1.0000
  C   C125      1.0  0.61366  0.09068  0.32096  1.0000
  N   N12       1.0  0.55975  0.11998  0.31884  1.0000
  C   C126      1.0  0.54355  0.14098  0.31753  1.0000
  C   C127      1.0  0.57232  0.17739  0.31161  1.0000
  C   C128      1.0  0.60503  0.17720  0.31377  1.0000
  C   C129      1.0  0.50538  0.12951  0.32309  1.0000
  C   C130      1.0  0.44515  0.02970  0.32096  1.0000
  C   C131      1.0  0.43923  0.07999  0.33305  1.0000
  C   C132      1.0  0.51525  0.97942  0.31733  1.0000
  C   C133      1.0  0.55341  0.99088  0.32283  1.0000
  C   C134      1.0  0.55032  0.93779  0.40238  1.0000
  C   C135      1.0  0.55710  0.90822  0.40598  1.0000
  C   C136      1.0  0.37528  0.96058  0.39490  1.0000
  C   C137      1.0  0.33804  0.93284  0.39798  1.0000
  C   C138      1.0  0.49537  0.15754  0.33054  1.0000
  C   C139      1.0  0.47771  0.21559  0.34385  1.0000
  C   C140      1.0  0.50135  0.21211  0.40580  1.0000
  C   C141      1.0  0.50838  0.18270  0.40222  1.0000
  C   C142      1.0  0.66144  0.15604  0.31993  1.0000
  C   C143      1.0  0.68355  0.15995  0.39464  1.0000
  C   C144      1.0  0.72072  0.18786  0.39773  1.0000
  H   H91       1.0  0.73593  0.18788  0.45073  1.0000
  H   H92       1.0  0.67286  0.14204  0.44701  1.0000
  H   H93       1.0  0.63185  0.02476  0.33988  1.0000
  H   H94       1.0  0.63027  0.20056  0.31343  1.0000
  H   H95       1.0  0.57059  0.20082  0.30847  1.0000
  H   H96       1.0  0.52522  0.18126  0.44942  1.0000
  H   H97       1.0  0.51517  0.23171  0.45313  1.0000
  H   H98       1.0  0.42695  0.09560  0.34047  1.0000
  H   H99       1.0  0.38603  0.97851  0.44725  1.0000
  H   H100      1.0  0.32288  0.93298  0.45095  1.0000
  H   H101      1.0  0.54320  0.88868  0.45338  1.0000
  H   H102      1.0  0.53348  0.93933  0.44949  1.0000
  C   C145      1.0  0.28429  0.50296  0.34625  1.0000
  C   C146      1.0  0.26614  0.50378  0.42562  1.0000
  C   C147      1.0  0.23336  0.50614  0.42238  1.0000
  C   C148      1.0  0.21559  0.50419  0.34017  1.0000
  N   N13       1.0  0.22043  0.51110  0.50122  1.0000
  C   C149      1.0  0.23479  0.51174  0.58241  1.0000
  C   C150      1.0  0.26530  0.50638  0.58539  1.0000
  N   N14       1.0  0.27972  0.50316  0.50757  1.0000
  H   H103      1.0  0.27735  0.50613  0.64423  1.0000
  C   C151      1.0  0.21786  0.51658  0.66342  1.0000
  H   H104      1.0  0.19492  0.52090  0.64701  1.0000
  C   C152      1.0  0.58603  0.87304  0.34593  1.0000
  C   C153      1.0  0.58519  0.85410  0.42528  1.0000
  C   C154      1.0  0.58279  0.81894  0.42202  1.0000
  C   C155      1.0  0.58473  0.80308  0.33981  1.0000
  N   N15       1.0  0.57781  0.80107  0.50084  1.0000
  C   C156      1.0  0.57718  0.81483  0.58204  1.0000
  C   C157      1.0  0.58256  0.85070  0.58505  1.0000
  N   N16       1.0  0.58581  0.86832  0.50723  1.0000
  H   H105      1.0  0.58282  0.86303  0.64389  1.0000
  C   C158      1.0  0.57231  0.79308  0.66304  1.0000
  H   H106      1.0  0.56797  0.76580  0.64661  1.0000
  C   C159      1.0  0.21593  0.80463  0.34633  1.0000
  C   C160      1.0  0.23489  0.82280  0.42564  1.0000
  C   C161      1.0  0.27005  0.85557  0.42229  1.0000
  C   C162      1.0  0.28588  0.87329  0.34003  1.0000
  N   N17       1.0  0.28793  0.86853  0.50108  1.0000
  C   C163      1.0  0.27420  0.85421  0.58232  1.0000
  C   C164      1.0  0.23834  0.82370  0.58540  1.0000
  N   N18       1.0  0.22069  0.80926  0.50763  1.0000
  H   H107      1.0  0.22601  0.81169  0.64428  1.0000
  C   C165      1.0  0.29596  0.87117  0.66327  1.0000
  H   H108      1.0  0.32322  0.89412  0.64679  1.0000
  C   C166      1.0  0.77215  0.61700  0.34613  1.0000
  C   C167      1.0  0.79036  0.61632  0.42547  1.0000
  C   C168      1.0  0.82338  0.61440  0.42215  1.0000
  C   C169      1.0  0.84130  0.61666  0.33994  1.0000
  N   N19       1.0  0.83641  0.60956  0.50091  1.0000
  C   C170      1.0  0.82190  0.60863  0.58212  1.0000
  C   C171      1.0  0.79110  0.61352  0.58521  1.0000
  N   N20       1.0  0.77662  0.61664  0.50745  1.0000
  H   H109      1.0  0.77894  0.61357  0.64408  1.0000
  C   C172      1.0  0.83893  0.60394  0.66305  1.0000
  H   H110      1.0  0.86210  0.59998  0.64655  1.0000
  C   C173      1.0  0.47197  0.24686  0.34578  1.0000
  C   C174      1.0  0.47263  0.26577  0.42511  1.0000
  C   C175      1.0  0.47454  0.30071  0.42178  1.0000
  C   C176      1.0  0.47227  0.31632  0.33956  1.0000
  N   N21       1.0  0.47937  0.31861  0.50054  1.0000
  C   C177      1.0  0.48030  0.30507  0.58176  1.0000
  C   C178      1.0  0.47542  0.26939  0.58486  1.0000
  N   N22       1.0  0.47231  0.25175  0.50709  1.0000
  H   H111      1.0  0.47537  0.25720  0.64373  1.0000
  C   C179      1.0  0.48497  0.32683  0.66268  1.0000
  H   H112      1.0  0.48891  0.35394  0.64618  1.0000
  C   C180      1.0  0.84210  0.31673  0.34617  1.0000
  C   C181      1.0  0.82316  0.29851  0.42546  1.0000
  C   C182      1.0  0.78820  0.26549  0.42207  1.0000
  C   C183      1.0  0.77260  0.24760  0.33983  1.0000
  N   N23       1.0  0.77028  0.25245  0.50080  1.0000
  C   C184      1.0  0.78381  0.26694  0.58204  1.0000
  C   C185      1.0  0.81949  0.29773  0.58520  1.0000
  N   N24       1.0  0.83716  0.31223  0.50747  1.0000
  H   H113      1.0  0.83167  0.30988  0.64409  1.0000
  C   C186      1.0  0.76202  0.24989  0.66294  1.0000
  H   H114      1.0  0.73490  0.22673  0.64639  1.0000
