data_image0
_chemical_formula_structural       C2H3C3HCH3C3HCH3C2HCHCNCNCNC18H12CNCNCNC18H12C3HCH3C3HCH3C2HCH2
_chemical_formula_sum              "C66 H48 N6"
_cell_length_a       29.4842
_cell_length_b       29.4842
_cell_length_c       14.9511
_cell_angle_alpha    90
_cell_angle_beta     90
_cell_angle_gamma    120

_space_group_name_H-M_alt    "P 1"
_space_group_IT_number       1

loop_
  _space_group_symop_operation_xyz
  'x, y, z'

loop_
  _atom_site_type_symbol
  _atom_site_label
  _atom_site_symmetry_multiplicity
  _atom_site_fract_x
  _atom_site_fract_y
  _atom_site_fract_z
  _atom_site_occupancy
  C   C1        1.0  0.03014  0.51548  0.25405  1.0000
  C   C2        1.0  0.02984  0.51533  0.41943  1.0000
  H   H1        1.0  0.02990  0.51536  0.56416  1.0000
  H   H2        1.0  0.04331  0.55215  0.12698  1.0000
  H   H3        1.0  0.04331  0.49198  0.12698  1.0000
  C   C3        1.0  0.53036  0.47374  0.33641  1.0000
  C   C4        1.0  0.48861  0.51548  0.25405  1.0000
  C   C5        1.0  0.51631  0.48778  0.25541  1.0000
  H   H4        1.0  0.52648  0.47761  0.19627  1.0000
  C   C6        1.0  0.47595  0.52814  0.16415  1.0000
  H   H5        1.0  0.45463  0.54946  0.16660  1.0000
  H   H6        1.0  0.45194  0.49198  0.12698  1.0000
  H   H7        1.0  0.51211  0.55215  0.12698  1.0000
  C   C7        1.0  0.53036  0.05745  0.33641  1.0000
  C   C8        1.0  0.48861  0.97395  0.25405  1.0000
  C   C9        1.0  0.51631  0.02934  0.25541  1.0000
  H   H8        1.0  0.52648  0.04969  0.19627  1.0000
  C   C10       1.0  0.47595  0.94862  0.16416  1.0000
  H   H9        1.0  0.45463  0.90599  0.16661  1.0000
  H   H10       1.0  0.51211  0.96079  0.12698  1.0000
  H   H11       1.0  0.45194  0.96079  0.12698  1.0000
  C   C11       1.0  0.94665  0.47374  0.33641  1.0000
  C   C12       1.0  0.97475  0.48779  0.25541  1.0000
  H   H12       1.0  0.95441  0.47761  0.19627  1.0000
  C   C13       1.0  0.05547  0.52814  0.16416  1.0000
  H   H13       1.0  0.09810  0.54946  0.16661  1.0000
  C   C14       1.0  0.36285  0.72242  0.33710  1.0000
  N   N1        1.0  0.38821  0.69451  0.33711  1.0000
  C   C15       1.0  0.36285  0.64125  0.33710  1.0000
  N   N2        1.0  0.30958  0.61589  0.33711  1.0000
  C   C16       1.0  0.28167  0.64125  0.33709  1.0000
  N   N3        1.0  0.30958  0.69451  0.33711  1.0000
  C   C17       1.0  0.39083  0.61327  0.33733  1.0000
  C   C18       1.0  0.44638  0.63996  0.33743  1.0000
  C   C19       1.0  0.47402  0.61247  0.33758  1.0000
  C   C20       1.0  0.44686  0.55723  0.33780  1.0000
  C   C21       1.0  0.39162  0.53007  0.33758  1.0000
  C   C22       1.0  0.36414  0.55771  0.33743  1.0000
  C   C23       1.0  0.39083  0.77839  0.33733  1.0000
  C   C24       1.0  0.44638  0.80724  0.33743  1.0000
  C   C25       1.0  0.47402  0.86237  0.33758  1.0000
  C   C26       1.0  0.44686  0.89046  0.33780  1.0000
  C   C27       1.0  0.39162  0.86237  0.33758  1.0000
  C   C28       1.0  0.36414  0.80724  0.33743  1.0000
  C   C29       1.0  0.22571  0.61327  0.33732  1.0000
  C   C30       1.0  0.19685  0.63996  0.33742  1.0000
  C   C31       1.0  0.14172  0.61247  0.33758  1.0000
  C   C32       1.0  0.11364  0.55723  0.33780  1.0000
  C   C33       1.0  0.14172  0.53007  0.33758  1.0000
  C   C34       1.0  0.19685  0.55771  0.33743  1.0000
  H   H14       1.0  0.51412  0.88187  0.33738  1.0000
  H   H15       1.0  0.46764  0.78847  0.33725  1.0000
  H   H16       1.0  0.37102  0.88187  0.33739  1.0000
  H   H17       1.0  0.32410  0.78847  0.33725  1.0000
  H   H18       1.0  0.21562  0.67999  0.33725  1.0000
  H   H19       1.0  0.12223  0.63307  0.33739  1.0000
  H   H20       1.0  0.21562  0.53645  0.33724  1.0000
  H   H21       1.0  0.12223  0.48998  0.33738  1.0000
  H   H22       1.0  0.32410  0.53645  0.33725  1.0000
  H   H23       1.0  0.37102  0.48998  0.33739  1.0000
  H   H24       1.0  0.51412  0.63307  0.33739  1.0000
  H   H25       1.0  0.46765  0.67999  0.33725  1.0000
  C   C35       1.0  0.64206  0.28086  0.33642  1.0000
  N   N4        1.0  0.61670  0.30876  0.33641  1.0000
  C   C36       1.0  0.64206  0.36203  0.33642  1.0000
  N   N5        1.0  0.69533  0.38739  0.33641  1.0000
  C   C37       1.0  0.72323  0.36203  0.33642  1.0000
  N   N6        1.0  0.69533  0.30876  0.33641  1.0000
  C   C38       1.0  0.61408  0.39001  0.33630  1.0000
  C   C39       1.0  0.55853  0.36331  0.33623  1.0000
  C   C40       1.0  0.53089  0.39080  0.33615  1.0000
  C   C41       1.0  0.55806  0.44603  0.33612  1.0000
  C   C42       1.0  0.61329  0.47320  0.33615  1.0000
  C   C43       1.0  0.64078  0.44556  0.33623  1.0000
  C   C44       1.0  0.61408  0.22490  0.33630  1.0000
  C   C45       1.0  0.55854  0.19604  0.33623  1.0000
  C   C46       1.0  0.53089  0.14091  0.33615  1.0000
  C   C47       1.0  0.55806  0.11285  0.33612  1.0000
  C   C48       1.0  0.61330  0.14091  0.33615  1.0000
  C   C49       1.0  0.64078  0.19604  0.33623  1.0000
  C   C50       1.0  0.77919  0.39001  0.33630  1.0000
  C   C51       1.0  0.80805  0.36331  0.33622  1.0000
  C   C52       1.0  0.86318  0.39080  0.33615  1.0000
  C   C53       1.0  0.89124  0.44603  0.33612  1.0000
  C   C54       1.0  0.86318  0.47320  0.33614  1.0000
  C   C55       1.0  0.80805  0.44556  0.33622  1.0000
  H   H26       1.0  0.49079  0.12142  0.33618  1.0000
  H   H27       1.0  0.53727  0.21481  0.33629  1.0000
  H   H28       1.0  0.63390  0.12142  0.33618  1.0000
  H   H29       1.0  0.68082  0.21481  0.33629  1.0000
  H   H30       1.0  0.78928  0.32327  0.33628  1.0000
  H   H31       1.0  0.88267  0.37019  0.33618  1.0000
  H   H32       1.0  0.78928  0.46682  0.33628  1.0000
  H   H33       1.0  0.88267  0.51330  0.33619  1.0000
  H   H34       1.0  0.68082  0.46682  0.33629  1.0000
  H   H35       1.0  0.63390  0.51330  0.33618  1.0000
  H   H36       1.0  0.49079  0.37019  0.33619  1.0000
  H   H37       1.0  0.53727  0.32327  0.33629  1.0000
  C   C56       1.0  0.51646  0.48763  0.41770  1.0000
  C   C57       1.0  0.48876  0.51533  0.41943  1.0000
  C   C58       1.0  0.47471  0.52938  0.33690  1.0000
  H   H38       1.0  0.52676  0.47733  0.47651  1.0000
  C   C59       1.0  0.47517  0.52893  0.50770  1.0000
  H   H39       1.0  0.48873  0.51536  0.56415  1.0000
  H   H40       1.0  0.43275  0.51110  0.51353  1.0000
  H   H41       1.0  0.49299  0.57135  0.51353  1.0000
  C   C60       1.0  0.51646  0.02965  0.41770  1.0000
  C   C61       1.0  0.48876  0.97425  0.41943  1.0000
  C   C62       1.0  0.47471  0.94615  0.33690  1.0000
  H   H42       1.0  0.52676  0.05025  0.47651  1.0000
  C   C63       1.0  0.47517  0.94706  0.50770  1.0000
  H   H43       1.0  0.48873  0.97420  0.56416  1.0000
  H   H44       1.0  0.49299  0.92247  0.51354  1.0000
  H   H45       1.0  0.43275  0.92247  0.51354  1.0000
  C   C64       1.0  0.97445  0.48763  0.41770  1.0000
  C   C65       1.0  0.05794  0.52938  0.33690  1.0000
  H   H46       1.0  0.95384  0.47733  0.47652  1.0000
  C   C66       1.0  0.05703  0.52893  0.50770  1.0000
  H   H47       1.0  0.08162  0.57135  0.51354  1.0000
  H   H48       1.0  0.08163  0.51110  0.51354  1.0000
