data_image0
_chemical_formula_structural       C6H6N2C8H5CN2HNC8H5CN2HNC8H5CN2HNC7H3NO2CHC7H3NO2CHC7H3NO2CHC2HC3HC2H4CHC2HC3HC2H4CHC2HC3HC2H4CHC12H5CNC2NHN2C10H6CNCN2C10H6CNCN2C10H6CNCN2C2HC3HC2H4CHC2HC3HC2H4CHC2HC3HC2H4CHC7H3NO2CHC7H3NO2CHC7H3NO2CH
_chemical_formula_sum              "C180 H114 N30 O12"
_cell_length_a       67.6448
_cell_length_b       67.6546
_cell_length_c       14.9933
_cell_angle_alpha    90
_cell_angle_beta     90
_cell_angle_gamma    119.982

_space_group_name_H-M_alt    "P 1"
_space_group_IT_number       1

loop_
  _space_group_symop_operation_xyz
  'x, y, z'

loop_
  _atom_site_type_symbol
  _atom_site_label
  _atom_site_symmetry_multiplicity
  _atom_site_fract_x
  _atom_site_fract_y
  _atom_site_fract_z
  _atom_site_occupancy
  C   C1        1.0  0.96894  0.01955  0.33965  1.0000
  C   C2        1.0  0.93636  0.91203  0.32511  1.0000
  C   C3        1.0  0.94766  0.93600  0.32819  1.0000
  C   C4        1.0  0.94486  0.00742  0.34916  1.0000
  C   C5        1.0  0.93218  0.01875  0.34702  1.0000
  C   C6        1.0  0.94312  0.04251  0.33342  1.0000
  H   H1        1.0  0.91901  0.90314  0.31735  1.0000
  H   H2        1.0  0.93805  0.94373  0.32131  1.0000
  H   H3        1.0  0.93618  0.99012  0.35829  1.0000
  H   H4        1.0  0.91481  0.00945  0.35407  1.0000
  H   H5        1.0  0.08810  0.01563  0.31715  1.0000
  H   H6        1.0  0.04750  0.99406  0.32110  1.0000
  N   N1        1.0  0.97139  0.98491  0.34086  1.0000
  N   N2        1.0  0.93042  0.05243  0.33222  1.0000
  C   C7        1.0  0.45525  0.26273  0.32431  1.0000
  C   C8        1.0  0.37017  0.20371  0.33198  1.0000
  C   C9        1.0  0.34618  0.19219  0.33371  1.0000
  C   C10       1.0  0.49052  0.19132  0.32473  1.0000
  C   C11       1.0  0.47808  0.20282  0.32247  1.0000
  C   C12       1.0  0.47921  0.27411  0.33719  1.0000
  C   C13       1.0  0.49220  0.29801  0.34201  1.0000
  C   C14       1.0  0.48176  0.31143  0.33281  1.0000
  H   H7        1.0  0.33814  0.20151  0.34039  1.0000
  H   H8        1.0  0.48710  0.22027  0.32417  1.0000
  H   H9        1.0  0.50797  0.20062  0.32755  1.0000
  H   H10       1.0  0.48760  0.26515  0.34476  1.0000
  H   H11       1.0  0.50944  0.30556  0.35251  1.0000
  C   C15       1.0  0.44222  0.23843  0.32126  1.0000
  N   N3        1.0  0.45278  0.22587  0.32004  1.0000
  N   N4        1.0  0.41903  0.22670  0.32113  1.0000
  H   H12       1.0  0.37870  0.22108  0.33902  1.0000
  N   N5        1.0  0.49529  0.33377  0.34118  1.0000
  C   C16       1.0  0.72864  0.19252  0.32439  1.0000
  C   C17       1.0  0.78768  0.16646  0.33182  1.0000
  C   C18       1.0  0.79921  0.15400  0.33352  1.0000
  C   C19       1.0  0.80004  0.29916  0.32474  1.0000
  C   C20       1.0  0.78854  0.27523  0.32243  1.0000
  C   C21       1.0  0.71726  0.20510  0.33743  1.0000
  C   C22       1.0  0.69335  0.19419  0.34237  1.0000
  C   C23       1.0  0.67994  0.17035  0.33314  1.0000
  H   H13       1.0  0.78990  0.13665  0.34021  1.0000
  H   H14       1.0  0.77109  0.26681  0.32413  1.0000
  H   H15       1.0  0.79073  0.30731  0.32755  1.0000
  H   H16       1.0  0.72622  0.22245  0.34505  1.0000
  H   H17       1.0  0.68580  0.20388  0.35299  1.0000
  C   C24       1.0  0.75294  0.20379  0.32126  1.0000
  N   N6        1.0  0.76550  0.22691  0.32005  1.0000
  N   N7        1.0  0.76468  0.19233  0.32106  1.0000
  H   H18       1.0  0.77031  0.15763  0.33889  1.0000
  N   N8        1.0  0.65760  0.16154  0.34160  1.0000
  C   C25       1.0  0.79870  0.53598  0.32440  1.0000
  C   C26       1.0  0.82474  0.62104  0.33194  1.0000
  C   C27       1.0  0.83721  0.64504  0.33368  1.0000
  C   C28       1.0  0.69204  0.50075  0.32491  1.0000
  C   C29       1.0  0.71598  0.51318  0.32261  1.0000
  C   C30       1.0  0.78612  0.51202  0.33743  1.0000
  C   C31       1.0  0.79704  0.49902  0.34235  1.0000
  C   C32       1.0  0.82089  0.50945  0.33315  1.0000
  H   H19       1.0  0.85456  0.65307  0.34037  1.0000
  H   H20       1.0  0.72440  0.50416  0.32443  1.0000
  H   H21       1.0  0.68389  0.48330  0.32781  1.0000
  H   H22       1.0  0.76877  0.50364  0.34498  1.0000
  H   H23       1.0  0.78736  0.48180  0.35295  1.0000
  C   C33       1.0  0.78742  0.54901  0.32128  1.0000
  N   N9        1.0  0.76430  0.53846  0.32007  1.0000
  N   N10       1.0  0.79888  0.57220  0.32112  1.0000
  H   H24       1.0  0.83358  0.61251  0.33897  1.0000
  N   N11       1.0  0.82971  0.49594  0.34164  1.0000
  C   C34       1.0  0.15123  0.07391  0.29071  1.0000
  C   C35       1.0  0.16484  0.08203  0.21346  1.0000
  C   C36       1.0  0.18875  0.09683  0.21834  1.0000
  C   C37       1.0  0.19971  0.10310  0.30325  1.0000
  C   C38       1.0  0.22407  0.11752  0.31494  1.0000
  C   C39       1.0  0.24021  0.11708  0.25598  1.0000
  C   C40       1.0  0.26380  0.13097  0.26976  1.0000
  H   H25       1.0  0.23511  0.10602  0.20346  1.0000
  H   H26       1.0  0.27470  0.13028  0.22413  1.0000
  H   H27       1.0  0.15724  0.07755  0.15194  1.0000
  N   N12       1.0  0.20113  0.10649  0.13863  1.0000
  O   O1        1.0  0.19946  0.09150  0.08464  1.0000
  O   O2        1.0  0.19473  0.11886  0.10027  1.0000
  C   C41       1.0  0.12801  0.05891  0.28299  1.0000
  H   H28       1.0  0.12259  0.04691  0.23600  1.0000
  C   C42       1.0  0.91734  0.07711  0.29073  1.0000
  C   C43       1.0  0.90925  0.08263  0.21348  1.0000
  C   C44       1.0  0.89450  0.09181  0.21837  1.0000
  C   C45       1.0  0.88827  0.09655  0.30328  1.0000
  C   C46       1.0  0.87386  0.10651  0.31496  1.0000
  C   C47       1.0  0.87434  0.12310  0.25602  1.0000
  C   C48       1.0  0.86046  0.13283  0.26978  1.0000
  H   H29       1.0  0.88540  0.12904  0.20351  1.0000
  H   H30       1.0  0.86117  0.14443  0.22416  1.0000
  H   H31       1.0  0.91372  0.07951  0.15197  1.0000
  N   N13       1.0  0.88486  0.09457  0.13866  1.0000
  O   O3        1.0  0.89988  0.10786  0.08470  1.0000
  O   O4        1.0  0.87246  0.07583  0.10027  1.0000
  C   C49       1.0  0.93232  0.06886  0.28301  1.0000
  H   H32       1.0  0.94433  0.07542  0.23606  1.0000
  C   C50       1.0  0.91409  0.83999  0.29063  1.0000
  C   C51       1.0  0.90855  0.82637  0.21340  1.0000
  C   C52       1.0  0.89938  0.80245  0.21833  1.0000
  C   C53       1.0  0.89464  0.79149  0.30326  1.0000
  C   C54       1.0  0.88468  0.76714  0.31498  1.0000
  C   C55       1.0  0.86807  0.75101  0.25610  1.0000
  C   C56       1.0  0.85837  0.72743  0.26985  1.0000
  H   H33       1.0  0.86214  0.75613  0.20353  1.0000
  H   H34       1.0  0.84677  0.71654  0.22423  1.0000
  H   H35       1.0  0.91168  0.83396  0.15188  1.0000
  N   N14       1.0  0.89660  0.79005  0.13864  1.0000
  O   O5        1.0  0.88331  0.79177  0.08469  1.0000
  O   O6        1.0  0.91535  0.79637  0.10024  1.0000
  C   C57       1.0  0.92235  0.86321  0.28286  1.0000
  H   H36       1.0  0.91578  0.86866  0.23595  1.0000
  C   C58       1.0  0.54487  0.14075  0.29621  1.0000
  C   C59       1.0  0.52748  0.14648  0.30056  1.0000
  H   H37       1.0  0.52203  0.15029  0.24272  1.0000
  C   C60       1.0  0.61845  0.13928  0.33930  1.0000
  C   C61       1.0  0.60149  0.13050  0.27244  1.0000
  C   C62       1.0  0.58019  0.12928  0.28565  1.0000
  H   H38       1.0  0.60503  0.12589  0.21203  1.0000
  C   C63       1.0  0.56356  0.12259  0.21106  1.0000
  C   C64       1.0  0.55368  0.13889  0.20723  1.0000
  H   H39       1.0  0.54970  0.10515  0.22289  1.0000
  H   H40       1.0  0.57127  0.12287  0.14660  1.0000
  H   H41       1.0  0.54004  0.13227  0.15738  1.0000
  H   H42       1.0  0.56691  0.15588  0.18593  1.0000
  C   C65       1.0  0.63992  0.14229  0.32285  1.0000
  H   H43       1.0  0.64147  0.13014  0.29192  1.0000
  C   C66       1.0  0.85056  0.40404  0.29621  1.0000
  C   C67       1.0  0.84484  0.38093  0.30054  1.0000
  H   H44       1.0  0.84101  0.37167  0.24271  1.0000
  C   C68       1.0  0.85199  0.47906  0.33928  1.0000
  C   C69       1.0  0.86080  0.47089  0.27246  1.0000
  C   C70       1.0  0.86203  0.45082  0.28568  1.0000
  H   H45       1.0  0.86539  0.47903  0.21201  1.0000
  C   C71       1.0  0.86870  0.44088  0.21104  1.0000
  C   C72       1.0  0.85239  0.41471  0.20723  1.0000
  H   H46       1.0  0.88614  0.44445  0.22279  1.0000
  H   H47       1.0  0.86841  0.44830  0.14659  1.0000
  H   H48       1.0  0.85899  0.40768  0.15733  1.0000
  H   H49       1.0  0.83539  0.41096  0.18604  1.0000
  C   C73       1.0  0.84897  0.49751  0.32285  1.0000
  H   H50       1.0  0.86110  0.51119  0.29180  1.0000
  C   C74       1.0  0.58712  0.44648  0.29617  1.0000
  C   C75       1.0  0.61023  0.46385  0.30050  1.0000
  H   H51       1.0  0.61950  0.46928  0.24267  1.0000
  C   C76       1.0  0.51212  0.37292  0.33915  1.0000
  C   C77       1.0  0.52026  0.38990  0.27241  1.0000
  C   C78       1.0  0.54034  0.41119  0.28564  1.0000
  H   H52       1.0  0.51214  0.38636  0.21192  1.0000
  C   C79       1.0  0.55027  0.42782  0.21106  1.0000
  C   C80       1.0  0.57644  0.43767  0.20719  1.0000
  H   H53       1.0  0.54670  0.44168  0.22293  1.0000
  H   H54       1.0  0.54284  0.42012  0.14660  1.0000
  H   H55       1.0  0.58346  0.45131  0.15735  1.0000
  H   H56       1.0  0.58020  0.42443  0.18589  1.0000
  C   C81       1.0  0.49369  0.35144  0.32255  1.0000
  H   H57       1.0  0.47994  0.34989  0.29207  1.0000
  C   C82       1.0  0.97165  0.94911  0.33955  1.0000
  C   C83       1.0  0.04208  0.02225  0.33961  1.0000
  C   C84       1.0  0.98379  0.93716  0.34906  1.0000
  C   C85       1.0  0.97246  0.91317  0.34688  1.0000
  C   C86       1.0  0.94870  0.90035  0.33323  1.0000
  C   C87       1.0  0.96714  0.05485  0.32525  1.0000
  C   C88       1.0  0.97980  0.04353  0.32831  1.0000
  C   C89       1.0  0.05402  0.04632  0.34929  1.0000
  C   C90       1.0  0.07802  0.05901  0.34712  1.0000
  C   C91       1.0  0.09085  0.04808  0.33330  1.0000
  C   C92       1.0  0.07919  0.02407  0.32502  1.0000
  C   C93       1.0  0.05522  0.01140  0.32809  1.0000
  H   H58       1.0  0.98177  0.90510  0.35397  1.0000
  H   H59       1.0  0.99714  0.05314  0.32143  1.0000
  H   H60       1.0  0.97559  0.07219  0.31752  1.0000
  H   H61       1.0  0.04539  0.05499  0.35859  1.0000
  H   H62       1.0  0.08607  0.07637  0.35433  1.0000
  C   C94       1.0  0.01776  0.00939  0.34101  1.0000
  N   N15       1.0  0.00500  0.01980  0.34090  1.0000
  C   C95       1.0  0.98179  0.00807  0.34103  1.0000
  C   C96       1.0  0.98312  0.97344  0.34097  1.0000
  N   N16       1.0  0.00629  0.98619  0.34084  1.0000
  H   H63       1.0  0.00109  0.94578  0.35823  1.0000
  N   N17       1.0  0.11346  0.06079  0.33215  1.0000
  N   N18       1.0  0.93878  0.87774  0.33206  1.0000
  C   C97       1.0  0.45389  0.19073  0.31860  1.0000
  C   C98       1.0  0.38223  0.19174  0.32080  1.0000
  C   C99       1.0  0.33339  0.16821  0.32451  1.0000
  C   C100      1.0  0.34518  0.15618  0.31178  1.0000
  C   C101      1.0  0.36919  0.16771  0.31081  1.0000
  C   C102      1.0  0.44271  0.16656  0.31577  1.0000
  C   C103      1.0  0.45517  0.15496  0.31754  1.0000
  C   C104      1.0  0.47917  0.16728  0.32378  1.0000
  C   C105      1.0  0.45791  0.30038  0.31968  1.0000
  C   C106      1.0  0.44487  0.27638  0.31571  1.0000
  H   H64       1.0  0.33634  0.13883  0.30357  1.0000
  H   H65       1.0  0.37701  0.15824  0.30168  1.0000
  H   H66       1.0  0.42529  0.15705  0.31248  1.0000
  H   H67       1.0  0.44666  0.13751  0.31570  1.0000
  H   H68       1.0  0.44981  0.30967  0.31441  1.0000
  H   H69       1.0  0.42762  0.26900  0.30654  1.0000
  C   C107      1.0  0.44151  0.20271  0.31828  1.0000
  N   N19       1.0  0.41832  0.19195  0.31826  1.0000
  C   C108      1.0  0.40658  0.20347  0.31955  1.0000
  N   N20       1.0  0.49123  0.15672  0.32519  1.0000
  N   N21       1.0  0.31072  0.15645  0.32185  1.0000
  C   C109      1.0  0.80064  0.26313  0.31856  1.0000
  C   C110      1.0  0.79965  0.19049  0.32062  1.0000
  C   C111      1.0  0.82319  0.16518  0.32426  1.0000
  C   C112      1.0  0.83523  0.18900  0.31155  1.0000
  C   C113      1.0  0.82369  0.20148  0.31061  1.0000
  C   C114      1.0  0.82481  0.27612  0.31574  1.0000
  C   C115      1.0  0.83640  0.30017  0.31752  1.0000
  C   C116      1.0  0.82408  0.31184  0.32379  1.0000
  C   C117      1.0  0.69099  0.15755  0.31981  1.0000
  C   C118      1.0  0.71499  0.16850  0.31572  1.0000
  H   H70       1.0  0.85258  0.19750  0.30334  1.0000
  H   H71       1.0  0.83315  0.21875  0.30149  1.0000
  H   H72       1.0  0.83432  0.26821  0.31246  1.0000
  H   H73       1.0  0.85386  0.30910  0.31572  1.0000
  H   H74       1.0  0.68170  0.14017  0.31449  1.0000
  H   H75       1.0  0.72237  0.15864  0.30643  1.0000
  C   C119      1.0  0.78866  0.23878  0.31825  1.0000
  N   N22       1.0  0.79943  0.22636  0.31815  1.0000
  C   C120      1.0  0.78791  0.20310  0.31942  1.0000
  N   N23       1.0  0.83464  0.33446  0.32523  1.0000
  N   N24       1.0  0.83496  0.15428  0.32165  1.0000
  C   C121      1.0  0.72807  0.53737  0.31860  1.0000
  C   C122      1.0  0.80071  0.60899  0.32074  1.0000
  C   C123      1.0  0.82602  0.65783  0.32449  1.0000
  C   C124      1.0  0.80220  0.64605  0.31173  1.0000
  C   C125      1.0  0.78972  0.62205  0.31075  1.0000
  C   C126      1.0  0.71507  0.54856  0.31563  1.0000
  C   C127      1.0  0.69102  0.53609  0.31739  1.0000
  C   C128      1.0  0.67934  0.51211  0.32381  1.0000
  C   C129      1.0  0.83369  0.53330  0.31982  1.0000
  C   C130      1.0  0.82273  0.54634  0.31575  1.0000
  H   H76       1.0  0.79370  0.65491  0.30352  1.0000
  H   H77       1.0  0.77245  0.61424  0.30160  1.0000
  H   H78       1.0  0.72298  0.56597  0.31224  1.0000
  H   H79       1.0  0.68208  0.54462  0.31547  1.0000
  H   H80       1.0  0.85107  0.54139  0.31457  1.0000
  H   H81       1.0  0.83258  0.56358  0.30649  1.0000
  C   C131      1.0  0.75242  0.54974  0.31829  1.0000
  N   N25       1.0  0.76484  0.57293  0.31822  1.0000
  C   C132      1.0  0.78810  0.58465  0.31950  1.0000
  N   N26       1.0  0.65673  0.50005  0.32520  1.0000
  N   N27       1.0  0.83692  0.68050  0.32185  1.0000
  C   C133      1.0  0.18572  0.09606  0.38123  1.0000
  C   C134      1.0  0.16190  0.08141  0.37442  1.0000
  H   H82       1.0  0.15225  0.07599  0.43135  1.0000
  C   C135      1.0  0.27232  0.14550  0.34476  1.0000
  C   C136      1.0  0.25638  0.14504  0.40693  1.0000
  C   C137      1.0  0.23261  0.13101  0.39363  1.0000
  H   H83       1.0  0.26210  0.15490  0.46327  1.0000
  C   C138      1.0  0.21627  0.12947  0.46350  1.0000
  C   C139      1.0  0.19620  0.10459  0.47066  1.0000
  H   H84       1.0  0.20971  0.14077  0.44514  1.0000
  H   H85       1.0  0.22446  0.13483  0.52880  1.0000
  H   H86       1.0  0.18379  0.10418  0.51851  1.0000
  H   H87       1.0  0.20248  0.09358  0.49608  1.0000
  C   C140      1.0  0.29556  0.16003  0.35820  1.0000
  H   H88       1.0  0.30057  0.17353  0.39771  1.0000
  C   C141      1.0  0.89526  0.08955  0.38125  1.0000
  C   C142      1.0  0.90987  0.08031  0.37444  1.0000
  H   H89       1.0  0.91528  0.07607  0.43137  1.0000
  C   C143      1.0  0.84591  0.12682  0.34475  1.0000
  C   C144      1.0  0.84635  0.11134  0.40690  1.0000
  C   C145      1.0  0.86038  0.10159  0.39364  1.0000
  H   H90       1.0  0.83649  0.10721  0.46323  1.0000
  C   C146      1.0  0.86189  0.08676  0.46351  1.0000
  C   C147      1.0  0.88675  0.09152  0.47068  1.0000
  H   H91       1.0  0.85056  0.06891  0.44515  1.0000
  H   H92       1.0  0.85653  0.08961  0.52882  1.0000
  H   H93       1.0  0.88714  0.07952  0.51856  1.0000
  H   H94       1.0  0.89778  0.10880  0.49608  1.0000
  C   C148      1.0  0.83140  0.13557  0.35814  1.0000
  H   H95       1.0  0.81790  0.12710  0.39772  1.0000
  C   C149      1.0  0.90165  0.80549  0.38121  1.0000
  C   C150      1.0  0.91089  0.82933  0.37436  1.0000
  H   H96       1.0  0.91515  0.83899  0.43127  1.0000
  C   C151      1.0  0.86438  0.71889  0.34482  1.0000
  C   C152      1.0  0.87987  0.73481  0.40696  1.0000
  C   C153      1.0  0.88961  0.75858  0.39367  1.0000
  H   H97       1.0  0.88401  0.72908  0.46328  1.0000
  C   C154      1.0  0.90445  0.77491  0.46351  1.0000
  C   C155      1.0  0.89968  0.79501  0.47066  1.0000
  H   H98       1.0  0.92229  0.78143  0.44514  1.0000
  H   H99       1.0  0.90160  0.76672  0.52882  1.0000
  H   H100      1.0  0.91169  0.80741  0.51851  1.0000
  H   H101      1.0  0.88240  0.78878  0.49606  1.0000
  C   C156      1.0  0.85565  0.69564  0.35824  1.0000
  H   H102      1.0  0.86413  0.69062  0.39774  1.0000
  C   C157      1.0  0.51832  0.14806  0.38307  1.0000
  C   C158      1.0  0.52604  0.14234  0.46100  1.0000
  C   C159      1.0  0.54375  0.13696  0.45873  1.0000
  C   C160      1.0  0.55457  0.13778  0.37608  1.0000
  C   C161      1.0  0.57504  0.13622  0.36811  1.0000
  C   C162      1.0  0.59248  0.14543  0.43362  1.0000
  C   C163      1.0  0.61359  0.14664  0.42025  1.0000
  H   H103      1.0  0.59081  0.15296  0.48981  1.0000
  H   H104      1.0  0.62579  0.15391  0.46891  1.0000
  H   H105      1.0  0.51909  0.14261  0.52144  1.0000
  N   N28       1.0  0.54980  0.12986  0.53807  1.0000
  O   O7        1.0  0.55605  0.14461  0.59884  1.0000
  O   O8        1.0  0.53350  0.11148  0.56697  1.0000
  C   C164      1.0  0.50383  0.15700  0.39010  1.0000
  H   H106      1.0  0.50471  0.16558  0.44549  1.0000
  C   C165      1.0  0.84328  0.37019  0.38304  1.0000
  C   C166      1.0  0.84899  0.38363  0.46097  1.0000
  C   C167      1.0  0.85435  0.40671  0.45873  1.0000
  C   C168      1.0  0.85353  0.41670  0.37609  1.0000
  C   C169      1.0  0.85510  0.43874  0.36813  1.0000
  C   C170      1.0  0.84592  0.44698  0.43371  1.0000
  C   C171      1.0  0.84466  0.46686  0.42028  1.0000
  H   H107      1.0  0.83833  0.43776  0.48979  1.0000
  H   H108      1.0  0.83736  0.47177  0.46888  1.0000
  H   H109      1.0  0.84872  0.37642  0.52142  1.0000
  N   N29       1.0  0.86144  0.41985  0.53809  1.0000
  O   O9        1.0  0.84668  0.41134  0.59884  1.0000
  O   O10       1.0  0.87983  0.42194  0.56700  1.0000
  C   C172      1.0  0.83433  0.34677  0.39008  1.0000
  H   H110      1.0  0.82571  0.33907  0.44541  1.0000
  C   C173      1.0  0.62098  0.47299  0.38302  1.0000
  C   C174      1.0  0.60755  0.46527  0.46096  1.0000
  C   C175      1.0  0.58446  0.44757  0.45871  1.0000
  C   C176      1.0  0.57446  0.43678  0.37604  1.0000
  C   C177      1.0  0.55241  0.41631  0.36812  1.0000
  C   C178      1.0  0.54418  0.39888  0.43363  1.0000
  C   C179      1.0  0.52431  0.37776  0.42012  1.0000
  H   H111      1.0  0.55341  0.40051  0.48970  1.0000
  H   H112      1.0  0.51942  0.36553  0.46866  1.0000
  H   H113      1.0  0.61476  0.47219  0.52141  1.0000
  N   N30       1.0  0.57132  0.44152  0.53807  1.0000
  O   O11       1.0  0.57983  0.43526  0.59877  1.0000
  O   O12       1.0  0.56924  0.45782  0.56705  1.0000
  C   C180      1.0  0.64441  0.48744  0.39006  1.0000
  H   H114      1.0  0.65211  0.48655  0.44544  1.0000
