data_image0
_chemical_formula_structural       C4H2C4H2C4H2C4H2N16C4H2C4H2C4H2C4H2C4H2C4H2C4H2C4H2N20C6H3C6H3C6H3C6H3C6H3C6H3C6H3C6H3C6H3C6H3C6H3C6H3C6H3C6H3C6H3C6H3C6H3C6H3C6H3C6H3N8C4H2C4H2C4H2C4H2C4H2C4H2C4H2C4H2N16C4H2C4H2C4H2C4H2C4H2C4H2C4H2C4H2C4H2C4H2
_chemical_formula_sum              "C240 H120 N60"
_cell_length_a       43.8868
_cell_length_b       43.8868
_cell_length_c       14.8596
_cell_angle_alpha    90
_cell_angle_beta     90
_cell_angle_gamma    90

_space_group_name_H-M_alt    "P 1"
_space_group_IT_number       1

loop_
  _space_group_symop_operation_xyz
  'x, y, z'

loop_
  _atom_site_type_symbol
  _atom_site_label
  _atom_site_symmetry_multiplicity
  _atom_site_fract_x
  _atom_site_fract_y
  _atom_site_fract_z
  _atom_site_occupancy
  C   C1        1.0  0.37447  0.05631  0.32565  1.0000
  C   C2        1.0  0.36469  0.03122  0.27347  1.0000
  C   C3        1.0  0.33375  0.02316  0.27263  1.0000
  C   C4        1.0  0.31272  0.04019  0.32413  1.0000
  H   H1        1.0  0.32687  0.00532  0.23335  1.0000
  H   H2        1.0  0.37970  0.01896  0.23526  1.0000
  C   C5        1.0  0.63472  0.95441  0.32579  1.0000
  C   C6        1.0  0.64428  0.97954  0.27348  1.0000
  C   C7        1.0  0.67527  0.98745  0.27109  1.0000
  C   C8        1.0  0.69654  0.97025  0.32130  1.0000
  H   H3        1.0  0.68201  0.00530  0.23164  1.0000
  H   H4        1.0  0.62909  0.99186  0.23604  1.0000
  C   C9        1.0  0.95322  0.37460  0.32533  1.0000
  C   C10       1.0  0.97821  0.36479  0.27283  1.0000
  C   C11       1.0  0.98626  0.33385  0.27206  1.0000
  C   C12       1.0  0.96930  0.31287  0.32390  1.0000
  H   H5        1.0  0.00405  0.32694  0.23262  1.0000
  H   H6        1.0  0.99044  0.37978  0.23445  1.0000
  C   C13       1.0  0.05518  0.63489  0.32689  1.0000
  C   C14       1.0  0.02995  0.64441  0.27490  1.0000
  C   C15       1.0  0.02201  0.67539  0.27248  1.0000
  C   C16       1.0  0.03927  0.69671  0.32231  1.0000
  H   H7        1.0  0.00411  0.68210  0.23319  1.0000
  H   H8        1.0  0.01759  0.62920  0.23763  1.0000
  N   N1        1.0  0.18553  0.56431  0.31109  1.0000
  N   N2        1.0  0.15669  0.57173  0.31144  1.0000
  N   N3        1.0  0.82443  0.44665  0.30693  1.0000
  N   N4        1.0  0.85330  0.43939  0.30662  1.0000
  N   N5        1.0  0.56396  0.82424  0.31121  1.0000
  N   N6        1.0  0.57142  0.85307  0.31146  1.0000
  N   N7        1.0  0.44634  0.18529  0.30709  1.0000
  N   N8        1.0  0.43910  0.15641  0.30669  1.0000
  N   N9        1.0  0.19215  0.08866  0.29675  1.0000
  N   N10       1.0  0.18153  0.11670  0.29706  1.0000
  N   N11       1.0  0.81729  0.92131  0.29544  1.0000
  N   N12       1.0  0.82793  0.89328  0.29637  1.0000
  N   N13       1.0  0.92096  0.19239  0.29714  1.0000
  N   N14       1.0  0.89290  0.18182  0.29740  1.0000
  N   N15       1.0  0.08831  0.81750  0.29510  1.0000
  N   N16       1.0  0.11633  0.82818  0.29597  1.0000
  C   C17       1.0  0.32270  0.63794  0.32197  1.0000
  C   C18       1.0  0.30522  0.62793  0.24802  1.0000
  C   C19       1.0  0.29453  0.59775  0.24590  1.0000
  C   C20       1.0  0.30085  0.57779  0.31838  1.0000
  H   H9        1.0  0.28010  0.59131  0.19524  1.0000
  H   H10       1.0  0.29923  0.64265  0.19765  1.0000
  C   C21       1.0  0.68704  0.37210  0.32169  1.0000
  C   C22       1.0  0.70475  0.38190  0.24798  1.0000
  C   C23       1.0  0.71564  0.41201  0.24572  1.0000
  C   C24       1.0  0.70930  0.43217  0.31772  1.0000
  H   H11       1.0  0.73013  0.41830  0.19505  1.0000
  H   H12       1.0  0.71074  0.36709  0.19785  1.0000
  C   C25       1.0  0.63757  0.68712  0.32174  1.0000
  C   C26       1.0  0.62757  0.70466  0.24794  1.0000
  C   C27       1.0  0.59739  0.71535  0.24591  1.0000
  C   C28       1.0  0.57737  0.70897  0.31824  1.0000
  H   H13       1.0  0.59096  0.72982  0.19534  1.0000
  H   H14       1.0  0.64229  0.71071  0.19763  1.0000
  C   C29       1.0  0.37174  0.32274  0.32204  1.0000
  C   C30       1.0  0.38156  0.30499  0.24843  1.0000
  C   C31       1.0  0.41166  0.29408  0.24626  1.0000
  C   C32       1.0  0.43179  0.30044  0.31832  1.0000
  H   H15       1.0  0.41796  0.27957  0.19564  1.0000
  H   H16       1.0  0.36675  0.29898  0.19829  1.0000
  C   C33       1.0  0.21538  0.90161  0.32864  1.0000
  C   C34       1.0  0.23886  0.91187  0.27135  1.0000
  C   C35       1.0  0.24565  0.94314  0.26650  1.0000
  C   C36       1.0  0.22961  0.96448  0.32033  1.0000
  H   H17       1.0  0.26261  0.95000  0.22392  1.0000
  H   H18       1.0  0.25081  0.89694  0.23199  1.0000
  C   C37       1.0  0.79394  0.10840  0.32768  1.0000
  C   C38       1.0  0.77079  0.09822  0.26915  1.0000
  C   C39       1.0  0.76411  0.06695  0.26346  1.0000
  C   C40       1.0  0.77991  0.04556  0.31772  1.0000
  H   H19       1.0  0.74736  0.06012  0.22008  1.0000
  H   H20       1.0  0.75902  0.11321  0.22951  1.0000
  C   C41       1.0  0.10799  0.21575  0.32893  1.0000
  C   C42       1.0  0.09770  0.23918  0.27150  1.0000
  C   C43       1.0  0.06643  0.24591  0.26664  1.0000
  C   C44       1.0  0.04512  0.22989  0.32063  1.0000
  H   H21       1.0  0.05953  0.26284  0.22395  1.0000
  H   H22       1.0  0.11262  0.25110  0.23204  1.0000
  C   C45       1.0  0.90120  0.79432  0.32757  1.0000
  C   C46       1.0  0.91137  0.77107  0.26934  1.0000
  C   C47       1.0  0.94263  0.76434  0.26379  1.0000
  C   C48       1.0  0.96404  0.78019  0.31784  1.0000
  H   H23       1.0  0.94945  0.74752  0.22065  1.0000
  H   H24       1.0  0.89638  0.75925  0.22985  1.0000
  N   N17       1.0  0.30237  0.45349  0.31216  1.0000
  N   N18       1.0  0.30871  0.42420  0.30941  1.0000
  N   N19       1.0  0.70698  0.55661  0.31105  1.0000
  N   N20       1.0  0.70066  0.58589  0.30845  1.0000
  N   N21       1.0  0.45318  0.70750  0.31215  1.0000
  N   N22       1.0  0.42390  0.70116  0.30931  1.0000
  N   N23       1.0  0.55629  0.30281  0.31142  1.0000
  N   N24       1.0  0.58558  0.30914  0.30885  1.0000
  N   N25       1.0  0.21415  0.27402  0.31710  1.0000
  N   N26       1.0  0.23513  0.29554  0.31585  1.0000
  N   N27       1.0  0.79512  0.73600  0.31687  1.0000
  N   N28       1.0  0.77413  0.71448  0.31555  1.0000
  N   N29       1.0  0.73565  0.21452  0.31698  1.0000
  N   N30       1.0  0.71414  0.23552  0.31568  1.0000
  N   N31       1.0  0.27367  0.79550  0.31701  1.0000
  N   N32       1.0  0.29520  0.77453  0.31573  1.0000
  N   N33       1.0  0.50765  0.02878  0.30879  1.0000
  N   N34       1.0  0.52868  0.00772  0.30969  1.0000
  N   N35       1.0  0.98088  0.50787  0.30973  1.0000
  N   N36       1.0  0.00194  0.52890  0.31068  1.0000
  C   C49       1.0  0.28103  0.03337  0.32829  1.0000
  C   C50       1.0  0.25960  0.05686  0.34097  1.0000
  C   C51       1.0  0.22806  0.05099  0.34931  1.0000
  C   C52       1.0  0.21776  0.02041  0.34101  1.0000
  C   C53       1.0  0.23855  0.99596  0.32667  1.0000
  C   C54       1.0  0.27002  0.00321  0.32302  1.0000
  H   H25       1.0  0.19495  0.01595  0.34603  1.0000
  H   H26       1.0  0.28560  0.98594  0.32017  1.0000
  H   H27       1.0  0.26720  0.07892  0.34393  1.0000
  C   C55       1.0  0.72829  0.97688  0.32459  1.0000
  C   C56       1.0  0.74964  0.95332  0.33754  1.0000
  C   C57       1.0  0.78119  0.95906  0.34647  1.0000
  C   C58       1.0  0.79160  0.98960  0.33834  1.0000
  C   C59       1.0  0.77091  0.01411  0.32353  1.0000
  C   C60       1.0  0.73942  0.00699  0.31931  1.0000
  H   H28       1.0  0.81440  0.99401  0.34399  1.0000
  H   H29       1.0  0.72391  0.02433  0.31638  1.0000
  H   H30       1.0  0.74196  0.93129  0.34064  1.0000
  C   C61       1.0  0.97616  0.28120  0.32829  1.0000
  C   C62       1.0  0.95271  0.25975  0.34120  1.0000
  C   C63       1.0  0.95864  0.22822  0.34977  1.0000
  C   C64       1.0  0.98922  0.21796  0.34147  1.0000
  C   C65       1.0  0.01364  0.23878  0.32698  1.0000
  C   C66       1.0  0.00634  0.27023  0.32306  1.0000
  H   H31       1.0  0.99372  0.19516  0.34665  1.0000
  H   H32       1.0  0.02358  0.28584  0.32006  1.0000
  H   H33       1.0  0.93063  0.26731  0.34416  1.0000
  C   C67       1.0  0.03267  0.72848  0.32535  1.0000
  C   C68       1.0  0.05626  0.74982  0.33795  1.0000
  C   C69       1.0  0.05056  0.78140  0.34644  1.0000
  C   C70       1.0  0.02003  0.79183  0.33825  1.0000
  C   C71       1.0  0.99548  0.77115  0.32382  1.0000
  C   C72       1.0  0.00258  0.73965  0.32002  1.0000
  H   H34       1.0  0.01565  0.81465  0.34357  1.0000
  H   H35       1.0  0.98522  0.72416  0.31727  1.0000
  H   H36       1.0  0.07828  0.74212  0.34107  1.0000
  C   C73       1.0  0.22893  0.53435  0.35595  1.0000
  C   C74       1.0  0.25025  0.55783  0.34203  1.0000
  C   C75       1.0  0.28180  0.55199  0.33377  1.0000
  C   C76       1.0  0.29216  0.52145  0.34315  1.0000
  C   C77       1.0  0.27140  0.49703  0.35841  1.0000
  C   C78       1.0  0.23993  0.50424  0.36229  1.0000
  H   H37       1.0  0.31497  0.51700  0.33840  1.0000
  H   H38       1.0  0.22434  0.48699  0.36651  1.0000
  H   H39       1.0  0.24256  0.57986  0.33875  1.0000
  C   C79       1.0  0.78099  0.47642  0.35223  1.0000
  C   C80       1.0  0.75986  0.45269  0.33921  1.0000
  C   C81       1.0  0.72818  0.45814  0.33247  1.0000
  C   C82       1.0  0.71751  0.48853  0.34260  1.0000
  C   C83       1.0  0.73806  0.51317  0.35703  1.0000
  C   C84       1.0  0.76963  0.50638  0.35921  1.0000
  H   H40       1.0  0.69462  0.49273  0.33899  1.0000
  H   H41       1.0  0.78499  0.52386  0.36274  1.0000
  H   H42       1.0  0.76778  0.43076  0.33550  1.0000
  C   C85       1.0  0.53402  0.78089  0.35627  1.0000
  C   C86       1.0  0.55748  0.75957  0.34225  1.0000
  C   C87       1.0  0.55161  0.72803  0.33385  1.0000
  C   C88       1.0  0.52108  0.71768  0.34319  1.0000
  C   C89       1.0  0.49668  0.73844  0.35863  1.0000
  C   C90       1.0  0.50390  0.76990  0.36266  1.0000
  H   H43       1.0  0.51661  0.69487  0.33831  1.0000
  H   H44       1.0  0.48665  0.78550  0.36696  1.0000
  H   H45       1.0  0.57952  0.76724  0.33893  1.0000
  C   C91       1.0  0.47611  0.22874  0.35245  1.0000
  C   C92       1.0  0.45236  0.24987  0.33962  1.0000
  C   C93       1.0  0.45778  0.28155  0.33297  1.0000
  C   C94       1.0  0.48818  0.29223  0.34301  1.0000
  C   C95       1.0  0.51284  0.27169  0.35729  1.0000
  C   C96       1.0  0.50607  0.24012  0.35933  1.0000
  H   H46       1.0  0.49238  0.31512  0.33948  1.0000
  H   H47       1.0  0.52355  0.22476  0.36280  1.0000
  H   H48       1.0  0.43043  0.24194  0.33597  1.0000
  C   C97       1.0  0.19430  0.22286  0.35204  1.0000
  C   C98       1.0  0.20135  0.19134  0.35903  1.0000
  C   C99       1.0  0.17884  0.16822  0.35611  1.0000
  C   C100      1.0  0.14811  0.17692  0.34544  1.0000
  C   C101      1.0  0.13957  0.20791  0.33769  1.0000
  C   C102      1.0  0.16303  0.23036  0.34016  1.0000
  H   H49       1.0  0.13172  0.16032  0.34346  1.0000
  H   H50       1.0  0.15704  0.25284  0.33690  1.0000
  H   H51       1.0  0.22360  0.18467  0.36350  1.0000
  C   C103      1.0  0.81496  0.78714  0.35194  1.0000
  C   C104      1.0  0.80790  0.81866  0.35901  1.0000
  C   C105      1.0  0.83038  0.84180  0.35583  1.0000
  C   C106      1.0  0.86110  0.83312  0.34482  1.0000
  C   C107      1.0  0.86965  0.80213  0.33698  1.0000
  C   C108      1.0  0.84622  0.77967  0.33971  1.0000
  H   H52       1.0  0.87748  0.84973  0.34254  1.0000
  H   H53       1.0  0.85222  0.75719  0.33628  1.0000
  H   H54       1.0  0.78564  0.82531  0.36357  1.0000
  C   C109      1.0  0.78677  0.19464  0.35215  1.0000
  C   C110      1.0  0.81830  0.20167  0.35958  1.0000
  C   C111      1.0  0.84141  0.17916  0.35647  1.0000
  C   C112      1.0  0.83273  0.14846  0.34529  1.0000
  C   C113      1.0  0.80174  0.13995  0.33715  1.0000
  C   C114      1.0  0.77929  0.16339  0.33973  1.0000
  H   H55       1.0  0.84932  0.13206  0.34313  1.0000
  H   H56       1.0  0.75682  0.15740  0.33608  1.0000
  H   H57       1.0  0.82498  0.22392  0.36428  1.0000
  C   C115      1.0  0.22249  0.81531  0.35180  1.0000
  C   C116      1.0  0.19096  0.80824  0.35856  1.0000
  C   C117      1.0  0.16782  0.83073  0.35546  1.0000
  C   C118      1.0  0.17652  0.86147  0.34490  1.0000
  C   C119      1.0  0.20752  0.87003  0.33741  1.0000
  C   C120      1.0  0.22998  0.84659  0.34007  1.0000
  H   H58       1.0  0.15992  0.87785  0.34276  1.0000
  H   H59       1.0  0.25246  0.85258  0.33692  1.0000
  H   H60       1.0  0.18431  0.78597  0.36276  1.0000
  C   C121      1.0  0.31578  0.72344  0.34690  1.0000
  C   C122      1.0  0.30847  0.69217  0.33535  1.0000
  C   C123      1.0  0.33102  0.66909  0.33246  1.0000
  C   C124      1.0  0.36188  0.67764  0.34089  1.0000
  C   C125      1.0  0.37059  0.70854  0.35052  1.0000
  C   C126      1.0  0.34718  0.73102  0.35284  1.0000
  H   H61       1.0  0.37824  0.66101  0.33961  1.0000
  H   H62       1.0  0.35307  0.75344  0.35977  1.0000
  H   H63       1.0  0.28612  0.68588  0.32885  1.0000
  C   C127      1.0  0.69360  0.28660  0.34710  1.0000
  C   C128      1.0  0.70103  0.31784  0.33548  1.0000
  C   C129      1.0  0.67857  0.34100  0.33243  1.0000
  C   C130      1.0  0.64768  0.33256  0.34079  1.0000
  C   C131      1.0  0.63885  0.30170  0.35054  1.0000
  C   C132      1.0  0.66218  0.27913  0.35297  1.0000
  H   H64       1.0  0.63137  0.34925  0.33938  1.0000
  H   H65       1.0  0.65621  0.25674  0.35996  1.0000
  H   H66       1.0  0.72341  0.32403  0.32904  1.0000
  C   C133      1.0  0.72306  0.69391  0.34687  1.0000
  C   C134      1.0  0.69180  0.70128  0.33526  1.0000
  C   C135      1.0  0.66869  0.67877  0.33223  1.0000
  C   C136      1.0  0.67719  0.64790  0.34055  1.0000
  C   C137      1.0  0.70806  0.63913  0.35025  1.0000
  C   C138      1.0  0.73059  0.66250  0.35272  1.0000
  H   H67       1.0  0.66053  0.63156  0.33919  1.0000
  H   H68       1.0  0.75299  0.65656  0.35972  1.0000
  H   H69       1.0  0.68556  0.72365  0.32886  1.0000
  C   C139      1.0  0.28623  0.31610  0.34718  1.0000
  C   C140      1.0  0.31748  0.30872  0.33567  1.0000
  C   C141      1.0  0.34062  0.33120  0.33270  1.0000
  C   C142      1.0  0.33213  0.36208  0.34103  1.0000
  C   C143      1.0  0.30125  0.37088  0.35066  1.0000
  C   C144      1.0  0.27872  0.34751  0.35301  1.0000
  H   H70       1.0  0.34880  0.37841  0.33969  1.0000
  H   H71       1.0  0.25631  0.35345  0.35988  1.0000
  H   H72       1.0  0.32370  0.28634  0.32924  1.0000
  C   C145      1.0  0.44550  0.10400  0.34998  1.0000
  C   C146      1.0  0.41451  0.09564  0.33991  1.0000
  C   C147      1.0  0.40555  0.06474  0.33424  1.0000
  C   C148      1.0  0.42824  0.04206  0.34142  1.0000
  C   C149      1.0  0.45927  0.04967  0.35105  1.0000
  C   C150      1.0  0.46765  0.08064  0.35324  1.0000
  H   H73       1.0  0.42212  0.01956  0.33977  1.0000
  H   H74       1.0  0.49024  0.08613  0.35861  1.0000
  H   H75       1.0  0.39821  0.11228  0.33670  1.0000
  C   C151      1.0  0.56506  0.90538  0.35577  1.0000
  C   C152      1.0  0.59567  0.91445  0.34321  1.0000
  C   C153      1.0  0.60377  0.94555  0.33504  1.0000
  C   C154      1.0  0.58047  0.96773  0.34085  1.0000
  C   C155      1.0  0.54972  0.95945  0.35396  1.0000
  C   C156      1.0  0.54243  0.92820  0.35922  1.0000
  H   H76       1.0  0.58608  0.99036  0.33940  1.0000
  H   H77       1.0  0.52003  0.92187  0.36270  1.0000
  H   H78       1.0  0.61231  0.89814  0.34007  1.0000
  C   C157      1.0  0.90569  0.44570  0.35011  1.0000
  C   C158      1.0  0.91398  0.41471  0.33985  1.0000
  C   C159      1.0  0.94486  0.40570  0.33402  1.0000
  C   C160      1.0  0.96759  0.42833  0.34125  1.0000
  C   C161      1.0  0.96006  0.45937  0.35116  1.0000
  C   C162      1.0  0.92910  0.46781  0.35352  1.0000
  H   H79       1.0  0.99007  0.42216  0.33940  1.0000
  H   H80       1.0  0.92365  0.49040  0.35906  1.0000
  H   H81       1.0  0.89731  0.39844  0.33657  1.0000
  C   C163      1.0  0.10438  0.56528  0.35587  1.0000
  C   C164      1.0  0.09524  0.59589  0.34375  1.0000
  C   C165      1.0  0.06411  0.60394  0.33593  1.0000
  C   C166      1.0  0.04199  0.58059  0.34177  1.0000
  C   C167      1.0  0.05033  0.54983  0.35431  1.0000
  C   C168      1.0  0.08161  0.54260  0.35916  1.0000
  H   H82       1.0  0.01935  0.58616  0.34052  1.0000
  H   H83       1.0  0.08799  0.52021  0.36230  1.0000
  H   H84       1.0  0.11152  0.61256  0.34066  1.0000
  N   N37       1.0  0.32401  0.06434  0.37110  1.0000
  N   N38       1.0  0.35281  0.07189  0.37205  1.0000
  N   N39       1.0  0.68542  0.94618  0.36878  1.0000
  N   N40       1.0  0.65662  0.93875  0.37099  1.0000
  N   N41       1.0  0.94522  0.32418  0.37112  1.0000
  N   N42       1.0  0.93768  0.35298  0.37202  1.0000
  N   N43       1.0  0.06343  0.68563  0.36951  1.0000
  N   N44       1.0  0.07088  0.65683  0.37176  1.0000
  C   C169      1.0  0.13558  0.55703  0.36240  1.0000
  C   C170      1.0  0.14604  0.53312  0.41818  1.0000
  C   C171      1.0  0.17697  0.52510  0.41742  1.0000
  C   C172      1.0  0.19732  0.54115  0.36115  1.0000
  H   H85       1.0  0.18438  0.50810  0.45910  1.0000
  H   H86       1.0  0.13155  0.52166  0.46014  1.0000
  C   C173      1.0  0.87462  0.45455  0.35562  1.0000
  C   C174      1.0  0.86433  0.47892  0.40993  1.0000
  C   C175      1.0  0.83332  0.48670  0.41011  1.0000
  C   C176      1.0  0.81274  0.47008  0.35603  1.0000
  H   H87       1.0  0.82603  0.50389  0.45127  1.0000
  H   H88       1.0  0.87891  0.49065  0.45090  1.0000
  C   C177      1.0  0.55677  0.87420  0.36246  1.0000
  C   C178      1.0  0.53287  0.86379  0.41836  1.0000
  C   C179      1.0  0.52482  0.83287  0.41772  1.0000
  C   C180      1.0  0.54083  0.81249  0.36142  1.0000
  H   H89       1.0  0.50784  0.82547  0.45947  1.0000
  H   H90       1.0  0.52145  0.87830  0.46034  1.0000
  C   C181      1.0  0.45430  0.13509  0.35556  1.0000
  C   C182      1.0  0.47867  0.14538  0.40987  1.0000
  C   C183      1.0  0.48643  0.17639  0.41014  1.0000
  C   C184      1.0  0.46977  0.19699  0.35616  1.0000
  H   H91       1.0  0.50362  0.18369  0.45129  1.0000
  H   H92       1.0  0.49042  0.13079  0.45075  1.0000
  C   C185      1.0  0.18710  0.13695  0.36466  1.0000
  C   C186      1.0  0.20433  0.12638  0.43847  1.0000
  C   C187      1.0  0.21507  0.09620  0.43900  1.0000
  C   C188      1.0  0.20897  0.07672  0.36524  1.0000
  H   H93       1.0  0.22931  0.08942  0.48973  1.0000
  H   H94       1.0  0.21013  0.14071  0.49000  1.0000
  C   C189      1.0  0.82208  0.87308  0.36391  1.0000
  C   C190      1.0  0.80455  0.88372  0.43703  1.0000
  C   C191      1.0  0.79379  0.91389  0.43691  1.0000
  C   C192      1.0  0.80016  0.93330  0.36318  1.0000
  H   H95       1.0  0.77935  0.92072  0.48710  1.0000
  H   H96       1.0  0.79856  0.86945  0.48849  1.0000
  C   C193      1.0  0.87268  0.18738  0.36506  1.0000
  C   C194      1.0  0.88329  0.20451  0.43903  1.0000
  C   C195      1.0  0.91349  0.21518  0.43961  1.0000
  C   C196      1.0  0.93294  0.20911  0.36577  1.0000
  H   H97       1.0  0.92031  0.22938  0.49041  1.0000
  H   H98       1.0  0.86898  0.21030  0.49060  1.0000
  C   C197      1.0  0.13654  0.82239  0.36351  1.0000
  C   C198      1.0  0.12593  0.80489  0.43671  1.0000
  C   C199      1.0  0.09579  0.79406  0.43663  1.0000
  C   C200      1.0  0.07636  0.80037  0.36291  1.0000
  H   H99       1.0  0.08898  0.77965  0.48691  1.0000
  H   H100      1.0  0.14022  0.79894  0.48820  1.0000
  N   N45       1.0  0.31792  0.58920  0.38708  1.0000
  N   N46       1.0  0.32854  0.61723  0.38813  1.0000
  N   N47       1.0  0.69197  0.42093  0.38615  1.0000
  N   N48       1.0  0.68120  0.39296  0.38744  1.0000
  N   N49       1.0  0.58883  0.69186  0.38680  1.0000
  N   N50       1.0  0.61686  0.68124  0.38785  1.0000
  N   N51       1.0  0.42056  0.31781  0.38665  1.0000
  N   N52       1.0  0.39259  0.32860  0.38781  1.0000
  N   N53       1.0  0.20678  0.95284  0.37208  1.0000
  N   N54       1.0  0.20008  0.92363  0.37536  1.0000
  N   N55       1.0  0.80242  0.05714  0.37078  1.0000
  N   N56       1.0  0.80904  0.08635  0.37478  1.0000
  N   N57       1.0  0.05679  0.20711  0.37251  1.0000
  N   N58       1.0  0.08600  0.20046  0.37578  1.0000
  N   N59       1.0  0.95248  0.80279  0.37061  1.0000
  N   N60       1.0  0.92327  0.80945  0.37451  1.0000
  C   C201      1.0  0.29370  0.40256  0.35842  1.0000
  C   C202      1.0  0.27100  0.41334  0.41765  1.0000
  C   C203      1.0  0.26461  0.44469  0.42192  1.0000
  C   C204      1.0  0.28029  0.46560  0.36576  1.0000
  H   H101      1.0  0.24815  0.45196  0.46565  1.0000
  H   H102      1.0  0.25937  0.39874  0.45884  1.0000
  C   C205      1.0  0.71557  0.60747  0.35799  1.0000
  C   C206      1.0  0.73809  0.59664  0.41770  1.0000
  C   C207      1.0  0.74446  0.56529  0.42186  1.0000
  C   C208      1.0  0.72892  0.54448  0.36509  1.0000
  H   H103      1.0  0.76087  0.55796  0.46565  1.0000
  H   H104      1.0  0.74965  0.61121  0.45917  1.0000
  C   C209      1.0  0.40225  0.71614  0.35834  1.0000
  C   C210      1.0  0.41299  0.73881  0.41771  1.0000
  C   C211      1.0  0.44434  0.74521  0.42209  1.0000
  C   C212      1.0  0.46525  0.72956  0.36587  1.0000
  H   H105      1.0  0.45159  0.76164  0.46592  1.0000
  H   H106      1.0  0.39837  0.75040  0.45893  1.0000
  C   C213      1.0  0.60717  0.29421  0.35830  1.0000
  C   C214      1.0  0.59634  0.27165  0.41788  1.0000
  C   C215      1.0  0.56498  0.26527  0.42201  1.0000
  C   C216      1.0  0.54416  0.28084  0.36534  1.0000
  H   H107      1.0  0.55767  0.24883  0.46571  1.0000
  H   H108      1.0  0.61091  0.26007  0.45929  1.0000
  C   C217      1.0  0.26341  0.29247  0.35308  1.0000
  C   C218      1.0  0.26885  0.26445  0.39729  1.0000
  C   C219      1.0  0.24632  0.24161  0.39908  1.0000
  C   C220      1.0  0.21786  0.24602  0.35591  1.0000
  H   H109      1.0  0.25095  0.22203  0.43364  1.0000
  H   H110      1.0  0.28897  0.26056  0.43009  1.0000
  C   C221      1.0  0.74587  0.71753  0.35287  1.0000
  C   C222      1.0  0.74044  0.74552  0.39727  1.0000
  C   C223      1.0  0.76297  0.76835  0.39914  1.0000
  C   C224      1.0  0.79142  0.76397  0.35585  1.0000
  H   H111      1.0  0.75835  0.78791  0.43381  1.0000
  H   H112      1.0  0.72032  0.74938  0.43011  1.0000
  C   C225      1.0  0.71720  0.26376  0.35309  1.0000
  C   C226      1.0  0.74518  0.26916  0.39756  1.0000
  C   C227      1.0  0.76800  0.24662  0.39941  1.0000
  C   C228      1.0  0.76362  0.21820  0.35603  1.0000
  H   H113      1.0  0.78755  0.25123  0.43415  1.0000
  H   H114      1.0  0.74904  0.28927  0.43049  1.0000
  C   C229      1.0  0.29212  0.74622  0.35276  1.0000
  C   C230      1.0  0.26407  0.74073  0.39680  1.0000
  C   C231      1.0  0.24122  0.76326  0.39862  1.0000
  C   C232      1.0  0.24565  0.79175  0.35566  1.0000
  H   H115      1.0  0.22163  0.75859  0.43305  1.0000
  H   H116      1.0  0.26018  0.72059  0.42946  1.0000
  C   C233      1.0  0.52657  0.98189  0.35988  1.0000
  C   C234      1.0  0.50052  0.97849  0.41491  1.0000
  C   C235      1.0  0.47782  0.00092  0.41357  1.0000
  C   C236      1.0  0.48161  0.02666  0.35788  1.0000
  H   H117      1.0  0.45903  0.99848  0.45370  1.0000
  H   H118      1.0  0.49789  0.96008  0.45637  1.0000
  C   C237      1.0  0.02793  0.52662  0.36009  1.0000
  C   C238      1.0  0.03149  0.50038  0.41422  1.0000
  C   C239      1.0  0.00905  0.47769  0.41285  1.0000
  C   C240      1.0  0.98312  0.48166  0.35799  1.0000
  H   H119      1.0  0.01160  0.45878  0.45241  1.0000
  H   H120      1.0  0.05001  0.49760  0.45516  1.0000
