data_image0
_chemical_formula_structural       C3H2C3H2C3H2C3H2C3H2C3H2C3HOHC3HOHC3HOHC3HOHC3HOHC3HOHC3HOHC3HOHC3HOHC3HOHC3HOHC3HOHC6H3C6H3C6H3C6H3C6H3C6H3C6H3C6H3C6H3C6H3C6H3C6H3C3HOHC3HOHC3HOHC3HOHC3HOHC3HOHC3H2C3H2C3H2C3H2C3H2C3H2C3H2C3H2C3H2C3H2C3H2C3H2
_chemical_formula_sum              "C180 H108 O18"
_cell_length_a       37.5337
_cell_length_b       37.5337
_cell_length_c       14.8332
_cell_angle_alpha    90
_cell_angle_beta     90
_cell_angle_gamma    120

_space_group_name_H-M_alt    "P 1"
_space_group_IT_number       1

loop_
  _space_group_symop_operation_xyz
  'x, y, z'

loop_
  _atom_site_type_symbol
  _atom_site_label
  _atom_site_symmetry_multiplicity
  _atom_site_fract_x
  _atom_site_fract_y
  _atom_site_fract_z
  _atom_site_occupancy
  C   C1        1.0  0.22959  0.44229  0.36598  1.0000
  C   C2        1.0  0.23965  0.41830  0.30907  1.0000
  C   C3        1.0  0.21727  0.37503  0.31155  1.0000
  H   H1        1.0  0.22510  0.35930  0.26685  1.0000
  H   H2        1.0  0.26258  0.43216  0.26217  1.0000
  C   C4        1.0  0.56297  0.78131  0.36542  1.0000
  C   C5        1.0  0.58699  0.81534  0.30850  1.0000
  C   C6        1.0  0.63026  0.83625  0.31113  1.0000
  H   H3        1.0  0.64601  0.85984  0.26651  1.0000
  H   H4        1.0  0.57315  0.82446  0.26163  1.0000
  C   C7        1.0  0.22402  0.77579  0.36530  1.0000
  C   C8        1.0  0.18992  0.76569  0.30852  1.0000
  C   C9        1.0  0.16900  0.78805  0.31115  1.0000
  H   H5        1.0  0.14543  0.78021  0.26650  1.0000
  H   H6        1.0  0.18083  0.74276  0.26160  1.0000
  C   C10       1.0  0.78153  0.55726  0.36587  1.0000
  C   C11       1.0  0.77144  0.58122  0.30895  1.0000
  C   C12       1.0  0.79378  0.62450  0.31148  1.0000
  H   H7        1.0  0.78590  0.64020  0.26682  1.0000
  H   H8        1.0  0.74846  0.56734  0.26216  1.0000
  C   C13       1.0  0.44806  0.21822  0.36554  1.0000
  C   C14       1.0  0.42405  0.18422  0.30852  1.0000
  C   C15       1.0  0.38077  0.16332  0.31110  1.0000
  H   H9        1.0  0.36503  0.13976  0.26642  1.0000
  H   H10       1.0  0.43789  0.17511  0.26162  1.0000
  C   C16       1.0  0.78703  0.22387  0.36497  1.0000
  C   C17       1.0  0.82115  0.23394  0.30829  1.0000
  C   C18       1.0  0.84205  0.21157  0.31105  1.0000
  H   H11       1.0  0.86565  0.21939  0.26647  1.0000
  H   H12       1.0  0.83028  0.25686  0.26135  1.0000
  C   C19       1.0  0.18300  0.22075  0.36461  1.0000
  C   C20       1.0  0.21644  0.23140  0.30473  1.0000
  C   C21       1.0  0.23809  0.20957  0.30583  1.0000
  H   H13       1.0  0.26177  0.21794  0.26120  1.0000
  O   O1        1.0  0.22872  0.26253  0.24384  1.0000
  H   H14       1.0  0.20922  0.25143  0.19325  1.0000
  C   C22       1.0  0.78451  0.95630  0.36456  1.0000
  C   C23       1.0  0.77388  0.97910  0.30463  1.0000
  C   C24       1.0  0.79571  0.02257  0.30575  1.0000
  H   H15       1.0  0.78736  0.03789  0.26108  1.0000
  O   O2        1.0  0.74277  0.96026  0.24372  1.0000
  H   H16       1.0  0.75387  0.95186  0.19315  1.0000
  C   C25       1.0  0.04900  0.82231  0.36448  1.0000
  C   C26       1.0  0.02620  0.78889  0.30455  1.0000
  C   C27       1.0  0.98272  0.76727  0.30564  1.0000
  H   H17       1.0  0.96740  0.74358  0.26102  1.0000
  O   O3        1.0  0.04503  0.77660  0.24366  1.0000
  H   H18       1.0  0.05344  0.79610  0.19308  1.0000
  C   C28       1.0  0.82800  0.77879  0.36461  1.0000
  C   C29       1.0  0.79456  0.76816  0.30472  1.0000
  C   C30       1.0  0.77293  0.79000  0.30582  1.0000
  H   H19       1.0  0.74926  0.78164  0.26116  1.0000
  O   O4        1.0  0.78227  0.73702  0.24383  1.0000
  H   H20       1.0  0.80176  0.74812  0.19324  1.0000
  C   C31       1.0  0.22651  0.04328  0.36448  1.0000
  C   C32       1.0  0.23712  0.02049  0.30452  1.0000
  C   C33       1.0  0.21527  0.97701  0.30561  1.0000
  H   H21       1.0  0.22362  0.96170  0.26093  1.0000
  O   O5        1.0  0.26824  0.03932  0.24361  1.0000
  H   H22       1.0  0.25714  0.04774  0.19306  1.0000
  C   C34       1.0  0.96200  0.17728  0.36461  1.0000
  C   C35       1.0  0.98481  0.21071  0.30470  1.0000
  C   C36       1.0  0.02829  0.23233  0.30580  1.0000
  H   H23       1.0  0.04361  0.25601  0.26116  1.0000
  O   O6        1.0  0.96599  0.22301  0.24380  1.0000
  H   H24       1.0  0.95757  0.20350  0.19323  1.0000
  C   C37       1.0  0.22741  0.57117  0.29812  1.0000
  C   C38       1.0  0.23583  0.59499  0.21822  1.0000
  C   C39       1.0  0.23641  0.63266  0.21992  1.0000
  H   H25       1.0  0.24804  0.65157  0.16483  1.0000
  O   O7        1.0  0.25059  0.58637  0.14223  1.0000
  H   H26       1.0  0.22845  0.55990  0.11937  1.0000
  C   C40       1.0  0.43397  0.65028  0.29778  1.0000
  C   C41       1.0  0.41008  0.63474  0.21807  1.0000
  C   C42       1.0  0.37248  0.59760  0.22015  1.0000
  H   H27       1.0  0.35340  0.59019  0.16534  1.0000
  O   O8        1.0  0.41850  0.65802  0.14199  1.0000
  H   H28       1.0  0.44498  0.66244  0.11896  1.0000
  C   C43       1.0  0.35505  0.77791  0.29711  1.0000
  C   C44       1.0  0.37051  0.76948  0.21739  1.0000
  C   C45       1.0  0.40764  0.76897  0.21954  1.0000
  H   H29       1.0  0.41495  0.75719  0.16478  1.0000
  O   O9        1.0  0.34721  0.75449  0.14138  1.0000
  H   H30       1.0  0.34258  0.77641  0.11838  1.0000
  C   C46       1.0  0.78367  0.42838  0.29769  1.0000
  C   C47       1.0  0.77513  0.40465  0.21765  1.0000
  C   C48       1.0  0.77455  0.36698  0.21905  1.0000
  H   H31       1.0  0.76273  0.34806  0.16404  1.0000
  O   O10       1.0  0.76026  0.41332  0.14190  1.0000
  H   H32       1.0  0.78235  0.43982  0.11907  1.0000
  C   C49       1.0  0.57702  0.34924  0.29803  1.0000
  C   C50       1.0  0.60086  0.36484  0.21831  1.0000
  C   C51       1.0  0.63853  0.40192  0.22055  1.0000
  H   H33       1.0  0.65756  0.40936  0.16563  1.0000
  O   O11       1.0  0.59251  0.34163  0.14214  1.0000
  H   H34       1.0  0.56595  0.33704  0.11927  1.0000
  C   C52       1.0  0.65598  0.22169  0.29649  1.0000
  C   C53       1.0  0.64044  0.23010  0.21683  1.0000
  C   C54       1.0  0.60331  0.23061  0.21919  1.0000
  H   H35       1.0  0.59593  0.24232  0.16441  1.0000
  O   O12       1.0  0.66363  0.24502  0.14064  1.0000
  H   H36       1.0  0.66821  0.22306  0.11765  1.0000
  C   C55       1.0  0.09496  0.24319  0.36563  1.0000
  C   C56       1.0  0.11737  0.22200  0.36531  1.0000
  C   C57       1.0  0.16095  0.24292  0.36664  1.0000
  C   C58       1.0  0.18204  0.28646  0.37051  1.0000
  C   C59       1.0  0.16117  0.30920  0.37060  1.0000
  C   C60       1.0  0.11760  0.28679  0.36720  1.0000
  H   H37       1.0  0.21348  0.30203  0.37512  1.0000
  H   H38       1.0  0.10193  0.30262  0.36620  1.0000
  H   H39       1.0  0.10157  0.19054  0.36094  1.0000
  C   C61       1.0  0.76207  0.84582  0.36560  1.0000
  C   C62       1.0  0.78326  0.88942  0.36529  1.0000
  C   C63       1.0  0.76233  0.91207  0.36658  1.0000
  C   C64       1.0  0.71879  0.88962  0.37033  1.0000
  C   C65       1.0  0.69606  0.84601  0.37045  1.0000
  C   C66       1.0  0.71847  0.82485  0.36711  1.0000
  H   H40       1.0  0.70321  0.90549  0.37493  1.0000
  H   H41       1.0  0.70264  0.79335  0.36611  1.0000
  H   H42       1.0  0.81472  0.90508  0.36097  1.0000
  C   C67       1.0  0.15947  0.91033  0.36547  1.0000
  C   C68       1.0  0.11588  0.88793  0.36525  1.0000
  C   C69       1.0  0.09323  0.84435  0.36649  1.0000
  C   C70       1.0  0.11568  0.82326  0.37025  1.0000
  C   C71       1.0  0.15928  0.84413  0.37033  1.0000
  C   C72       1.0  0.18044  0.88770  0.36696  1.0000
  H   H43       1.0  0.09980  0.79182  0.37487  1.0000
  H   H44       1.0  0.21194  0.90337  0.36591  1.0000
  H   H45       1.0  0.10022  0.90373  0.36083  1.0000
  C   C73       1.0  0.91604  0.75638  0.36554  1.0000
  C   C74       1.0  0.89363  0.77755  0.36531  1.0000
  C   C75       1.0  0.85005  0.75662  0.36660  1.0000
  C   C76       1.0  0.82898  0.71307  0.37042  1.0000
  C   C77       1.0  0.84986  0.69035  0.37050  1.0000
  C   C78       1.0  0.89342  0.71278  0.36708  1.0000
  H   H46       1.0  0.79753  0.69749  0.37504  1.0000
  H   H47       1.0  0.90910  0.69696  0.36604  1.0000
  H   H48       1.0  0.90942  0.80901  0.36087  1.0000
  C   C79       1.0  0.24897  0.15376  0.36562  1.0000
  C   C80       1.0  0.22778  0.11016  0.36533  1.0000
  C   C81       1.0  0.24870  0.08751  0.36653  1.0000
  C   C82       1.0  0.29224  0.10996  0.37029  1.0000
  C   C83       1.0  0.31497  0.15356  0.37040  1.0000
  C   C84       1.0  0.29257  0.17472  0.36712  1.0000
  H   H49       1.0  0.30781  0.09408  0.37483  1.0000
  H   H50       1.0  0.30840  0.20622  0.36613  1.0000
  H   H51       1.0  0.19632  0.09451  0.36091  1.0000
  C   C85       1.0  0.85152  0.08926  0.36558  1.0000
  C   C86       1.0  0.89512  0.11167  0.36534  1.0000
  C   C87       1.0  0.91778  0.15524  0.36661  1.0000
  C   C88       1.0  0.89533  0.17633  0.37036  1.0000
  C   C89       1.0  0.85172  0.15547  0.37035  1.0000
  C   C90       1.0  0.83056  0.11190  0.36701  1.0000
  H   H52       1.0  0.91120  0.20778  0.37493  1.0000
  H   H53       1.0  0.79906  0.09623  0.36593  1.0000
  H   H54       1.0  0.91077  0.09586  0.36099  1.0000
  C   C91       1.0  0.31470  0.54978  0.31339  1.0000
  C   C92       1.0  0.29040  0.56800  0.29503  1.0000
  C   C93       1.0  0.24764  0.54817  0.31200  1.0000
  C   C94       1.0  0.22841  0.50740  0.34524  1.0000
  C   C95       1.0  0.25078  0.48628  0.35644  1.0000
  C   C96       1.0  0.29434  0.50904  0.34672  1.0000
  H   H55       1.0  0.19706  0.49174  0.35202  1.0000
  H   H56       1.0  0.31120  0.49473  0.35652  1.0000
  H   H57       1.0  0.30518  0.59847  0.27678  1.0000
  C   C97       1.0  0.45553  0.75903  0.31257  1.0000
  C   C98       1.0  0.43726  0.71650  0.29433  1.0000
  C   C99       1.0  0.45703  0.69352  0.31158  1.0000
  C   C100      1.0  0.49779  0.71505  0.34485  1.0000
  C   C101      1.0  0.51897  0.75854  0.35591  1.0000
  C   C102      1.0  0.49626  0.77938  0.34589  1.0000
  H   H58       1.0  0.51341  0.69932  0.35178  1.0000
  H   H59       1.0  0.51059  0.81054  0.35582  1.0000
  H   H60       1.0  0.40680  0.70081  0.27610  1.0000
  C   C103      1.0  0.24633  0.69066  0.31249  1.0000
  C   C104      1.0  0.28883  0.71495  0.29398  1.0000
  C   C105      1.0  0.31180  0.75771  0.31096  1.0000
  C   C106      1.0  0.29028  0.77694  0.34433  1.0000
  C   C107      1.0  0.24680  0.75458  0.35571  1.0000
  C   C108      1.0  0.22600  0.71102  0.34607  1.0000
  H   H61       1.0  0.30599  0.80829  0.35112  1.0000
  H   H62       1.0  0.19484  0.69419  0.35596  1.0000
  H   H63       1.0  0.30452  0.70018  0.27560  1.0000
  C   C109      1.0  0.69637  0.44976  0.31369  1.0000
  C   C110      1.0  0.72064  0.43152  0.29525  1.0000
  C   C111      1.0  0.76344  0.45138  0.31189  1.0000
  C   C112      1.0  0.78269  0.49212  0.34529  1.0000
  C   C113      1.0  0.76033  0.51326  0.35646  1.0000
  C   C114      1.0  0.71676  0.49049  0.34698  1.0000
  H   H64       1.0  0.81406  0.50783  0.35152  1.0000
  H   H65       1.0  0.69994  0.50485  0.35671  1.0000
  H   H66       1.0  0.70587  0.40107  0.27689  1.0000
  C   C115      1.0  0.55546  0.24049  0.31240  1.0000
  C   C116      1.0  0.57371  0.28302  0.29420  1.0000
  C   C117      1.0  0.55396  0.30599  0.31172  1.0000
  C   C118      1.0  0.51325  0.28448  0.34533  1.0000
  C   C119      1.0  0.49206  0.24097  0.35604  1.0000
  C   C120      1.0  0.51478  0.22014  0.34605  1.0000
  H   H67       1.0  0.49759  0.30018  0.35203  1.0000
  H   H68       1.0  0.50042  0.18896  0.35563  1.0000
  H   H69       1.0  0.60416  0.29872  0.27591  1.0000
  C   C121      1.0  0.76472  0.30893  0.31132  1.0000
  C   C122      1.0  0.72225  0.28460  0.29254  1.0000
  C   C123      1.0  0.69927  0.24186  0.30990  1.0000
  C   C124      1.0  0.72076  0.22270  0.34384  1.0000
  C   C125      1.0  0.76424  0.24506  0.35509  1.0000
  C   C126      1.0  0.78503  0.28861  0.34524  1.0000
  H   H70       1.0  0.70503  0.19135  0.35070  1.0000
  H   H71       1.0  0.81617  0.30548  0.35537  1.0000
  H   H72       1.0  0.70654  0.29935  0.27426  1.0000
  C   C127      1.0  0.18372  0.35347  0.37125  1.0000
  C   C128      1.0  0.17369  0.37737  0.42927  1.0000
  C   C129      1.0  0.19594  0.42086  0.42542  1.0000
  H   H73       1.0  0.18763  0.43703  0.46769  1.0000
  O   O13       1.0  0.14247  0.35957  0.49018  1.0000
  H   H74       1.0  0.15317  0.35111  0.54143  1.0000
  C   C130      1.0  0.65178  0.82428  0.37096  1.0000
  C   C131      1.0  0.62786  0.79036  0.42897  1.0000
  C   C132      1.0  0.58437  0.76911  0.42500  1.0000
  H   H75       1.0  0.56817  0.74465  0.46731  1.0000
  O   O14       1.0  0.64563  0.77696  0.49001  1.0000
  H   H76       1.0  0.65404  0.79612  0.54123  1.0000
  C   C133      1.0  0.18101  0.82159  0.37088  1.0000
  C   C134      1.0  0.21496  0.83162  0.42881  1.0000
  C   C135      1.0  0.23624  0.80941  0.42482  1.0000
  H   H77       1.0  0.26073  0.81771  0.46703  1.0000
  O   O15       1.0  0.22839  0.86282  0.48977  1.0000
  H   H78       1.0  0.20925  0.85211  0.54104  1.0000
  C   C136      1.0  0.82733  0.64608  0.37115  1.0000
  C   C137      1.0  0.83740  0.62220  0.42912  1.0000
  C   C138      1.0  0.81519  0.57871  0.42527  1.0000
  H   H79       1.0  0.82351  0.56255  0.46755  1.0000
  O   O16       1.0  0.86862  0.64002  0.49003  1.0000
  H   H80       1.0  0.85792  0.64846  0.54128  1.0000
  C   C139      1.0  0.35924  0.17527  0.37096  1.0000
  C   C140      1.0  0.38317  0.20916  0.42906  1.0000
  C   C141      1.0  0.42666  0.23039  0.42516  1.0000
  H   H81       1.0  0.44285  0.25483  0.46752  1.0000
  O   O17       1.0  0.36539  0.22254  0.49012  1.0000
  H   H82       1.0  0.35696  0.20336  0.54131  1.0000
  C   C142      1.0  0.83000  0.17803  0.37080  1.0000
  C   C143      1.0  0.79601  0.16800  0.42859  1.0000
  C   C144      1.0  0.77475  0.19023  0.42447  1.0000
  H   H83       1.0  0.75023  0.18192  0.46658  1.0000
  O   O18       1.0  0.78252  0.13679  0.48954  1.0000
  H   H84       1.0  0.80163  0.14749  0.54087  1.0000
  C   C145      1.0  0.22689  0.17588  0.36459  1.0000
  C   C146      1.0  0.19312  0.16493  0.42291  1.0000
  C   C147      1.0  0.17176  0.18693  0.42310  1.0000
  H   H85       1.0  0.14822  0.17840  0.46816  1.0000
  H   H86       1.0  0.18430  0.14128  0.46781  1.0000
  C   C148      1.0  0.82940  0.04506  0.36453  1.0000
  C   C149      1.0  0.84034  0.02222  0.42285  1.0000
  C   C150      1.0  0.81831  0.97887  0.42308  1.0000
  H   H87       1.0  0.82682  0.96385  0.46817  1.0000
  H   H88       1.0  0.86396  0.03705  0.46782  1.0000
  C   C151      1.0  0.96024  0.77846  0.36444  1.0000
  C   C152      1.0  0.98308  0.81223  0.42277  1.0000
  C   C153      1.0  0.02643  0.83356  0.42297  1.0000
  H   H89       1.0  0.04145  0.85707  0.46810  1.0000
  H   H90       1.0  0.96825  0.82102  0.46775  1.0000
  C   C154      1.0  0.78414  0.82370  0.36455  1.0000
  C   C155      1.0  0.81791  0.83462  0.42289  1.0000
  C   C156      1.0  0.83924  0.81261  0.42309  1.0000
  H   H91       1.0  0.86279  0.82114  0.46814  1.0000
  H   H92       1.0  0.82674  0.85829  0.46777  1.0000
  C   C157      1.0  0.18159  0.95452  0.36440  1.0000
  C   C158      1.0  0.17067  0.97736  0.42277  1.0000
  C   C159      1.0  0.19270  0.02071  0.42299  1.0000
  H   H93       1.0  0.18422  0.03574  0.46815  1.0000
  H   H94       1.0  0.14706  0.96253  0.46776  1.0000
  C   C160      1.0  0.05077  0.22112  0.36456  1.0000
  C   C161      1.0  0.02792  0.18735  0.42289  1.0000
  C   C162      1.0  0.98457  0.16602  0.42308  1.0000
  H   H95       1.0  0.96955  0.14250  0.46818  1.0000
  H   H96       1.0  0.04275  0.17853  0.46781  1.0000
  C   C163      1.0  0.22749  0.64748  0.29948  1.0000
  C   C164      1.0  0.21170  0.62020  0.37379  1.0000
  C   C165      1.0  0.21191  0.58256  0.37326  1.0000
  H   H97       1.0  0.20764  0.56753  0.43343  1.0000
  H   H98       1.0  0.20720  0.63056  0.43425  1.0000
  C   C166      1.0  0.35787  0.57408  0.30006  1.0000
  C   C167      1.0  0.38530  0.58561  0.37411  1.0000
  C   C168      1.0  0.42291  0.62351  0.37313  1.0000
  H   H99       1.0  0.43785  0.63453  0.43330  1.0000
  H   H100      1.0  0.37492  0.57107  0.43487  1.0000
  C   C169      1.0  0.43127  0.77794  0.29935  1.0000
  C   C170      1.0  0.41968  0.79382  0.37335  1.0000
  C   C171      1.0  0.38179  0.79352  0.37245  1.0000
  H   H101      1.0  0.37092  0.79779  0.43249  1.0000
  H   H102      1.0  0.43446  0.79825  0.43387  1.0000
  C   C172      1.0  0.78352  0.35214  0.29854  1.0000
  C   C173      1.0  0.79973  0.37945  0.37273  1.0000
  C   C174      1.0  0.79932  0.41700  0.37254  1.0000
  H   H103      1.0  0.80363  0.43198  0.43280  1.0000
  H   H104      1.0  0.80405  0.36897  0.43319  1.0000
  C   C175      1.0  0.65320  0.42548  0.30040  1.0000
  C   C176      1.0  0.62575  0.41388  0.37444  1.0000
  C   C177      1.0  0.58816  0.37595  0.37347  1.0000
  H   H105      1.0  0.57326  0.36502  0.43372  1.0000
  H   H106      1.0  0.63613  0.42840  0.43521  1.0000
  C   C178      1.0  0.57974  0.22159  0.29910  1.0000
  C   C179      1.0  0.59141  0.20576  0.37299  1.0000
  C   C180      1.0  0.62928  0.20601  0.37187  1.0000
  H   H107      1.0  0.64019  0.20170  0.43181  1.0000
  H   H108      1.0  0.57667  0.20120  0.43361  1.0000
