data_image0
_chemical_formula_structural       C8HC7HCH4C4O3NC2HNHNC2HNHNC2HNHNC2HNHNC2HNHNC2HNHOC8HC7HCH4C4O4C8HC7HCH4C4O4CNCNH2NHCNCNH2NHCNCNH2NHCNCNH2NHCNCNH2NHCNCNH2NH
_chemical_formula_sum              "C84 H48 O12 N30"
_cell_length_a       29.8271
_cell_length_b       29.8272
_cell_length_c       15.158
_cell_angle_alpha    89.9992
_cell_angle_beta     90.0008
_cell_angle_gamma    120

_space_group_name_H-M_alt    "P 1"
_space_group_IT_number       1

loop_
  _space_group_symop_operation_xyz
  'x, y, z'

loop_
  _atom_site_type_symbol
  _atom_site_label
  _atom_site_symmetry_multiplicity
  _atom_site_fract_x
  _atom_site_fract_y
  _atom_site_fract_z
  _atom_site_occupancy
  C   C1        1.0  0.02168  0.52959  0.31966  1.0000
  C   C2        1.0  0.97392  0.48160  0.31941  1.0000
  C   C3        1.0  0.97414  0.43406  0.31554  1.0000
  C   C4        1.0  0.02166  0.43501  0.32051  1.0000
  C   C5        1.0  0.06922  0.48157  0.32553  1.0000
  C   C6        1.0  0.06947  0.52937  0.32057  1.0000
  C   C7        1.0  0.92734  0.48309  0.31789  1.0000
  C   C8        1.0  0.11597  0.57751  0.32232  1.0000
  H   H1        1.0  0.02160  0.40057  0.32121  1.0000
  C   C9        1.0  0.02158  0.57764  0.31966  1.0000
  C   C10       1.0  0.97379  0.57787  0.32052  1.0000
  C   C11       1.0  0.97403  0.62566  0.32549  1.0000
  C   C12       1.0  0.02160  0.67222  0.32051  1.0000
  C   C13       1.0  0.06912  0.67318  0.31553  1.0000
  C   C14       1.0  0.06934  0.62563  0.31945  1.0000
  C   C15       1.0  0.92729  0.52972  0.32216  1.0000
  H   H2        1.0  0.02167  0.70666  0.32124  1.0000
  C   C16       1.0  0.11592  0.62415  0.31805  1.0000
  H   H3        1.0  0.89198  0.52713  0.32547  1.0000
  H   H4        1.0  0.89207  0.45024  0.31489  1.0000
  H   H5        1.0  0.15119  0.65699  0.31517  1.0000
  H   H6        1.0  0.15127  0.58012  0.32583  1.0000
  C   C17       1.0  0.11394  0.47788  0.34087  1.0000
  C   C18       1.0  0.92908  0.38545  0.30422  1.0000
  C   C19       1.0  0.92931  0.62931  0.34102  1.0000
  C   C20       1.0  0.11421  0.72177  0.30422  1.0000
  O   O1        1.0  0.10952  0.43923  0.39419  1.0000
  O   O2        1.0  0.93225  0.34981  0.25279  1.0000
  O   O3        1.0  0.11091  0.75715  0.25223  1.0000
  N   N1        1.0  0.27912  0.50671  0.26324  1.0000
  C   C21       1.0  0.23695  0.50957  0.23975  1.0000
  C   C22       1.0  0.20191  0.50449  0.30631  1.0000
  H   H7        1.0  0.22877  0.51028  0.17450  1.0000
  N   N2        1.0  0.15609  0.50149  0.28750  1.0000
  H   H8        1.0  0.15178  0.51321  0.22957  1.0000
  N   N3        1.0  0.56863  0.85812  0.26317  1.0000
  C   C23       1.0  0.56597  0.81317  0.23968  1.0000
  C   C24       1.0  0.57090  0.78313  0.30624  1.0000
  H   H9        1.0  0.56494  0.80413  0.17444  1.0000
  N   N4        1.0  0.57379  0.74025  0.28744  1.0000
  H   H10       1.0  0.56212  0.72427  0.22947  1.0000
  N   N5        1.0  0.21709  0.79621  0.26326  1.0000
  C   C25       1.0  0.26202  0.83852  0.23978  1.0000
  C   C26       1.0  0.29202  0.87350  0.30634  1.0000
  H   H11       1.0  0.27107  0.84653  0.17454  1.0000
  N   N6        1.0  0.33486  0.91931  0.28751  1.0000
  H   H12       1.0  0.35092  0.92357  0.22963  1.0000
  N   N7        1.0  0.76407  0.60054  0.26333  1.0000
  C   C27       1.0  0.80632  0.59782  0.23985  1.0000
  C   C28       1.0  0.84137  0.60291  0.30639  1.0000
  H   H13       1.0  0.81438  0.59693  0.17459  1.0000
  N   N8        1.0  0.88719  0.60592  0.28754  1.0000
  H   H14       1.0  0.89143  0.59409  0.22967  1.0000
  N   N9        1.0  0.47477  0.24923  0.26329  1.0000
  C   C29       1.0  0.47756  0.29423  0.23977  1.0000
  C   C30       1.0  0.47240  0.32414  0.30630  1.0000
  H   H15       1.0  0.47829  0.30311  0.17452  1.0000
  N   N10       1.0  0.46937  0.36695  0.28745  1.0000
  H   H16       1.0  0.48111  0.38298  0.22954  1.0000
  N   N11       1.0  0.82613  0.31110  0.26319  1.0000
  C   C31       1.0  0.78117  0.26882  0.23971  1.0000
  C   C32       1.0  0.75114  0.23387  0.30629  1.0000
  H   H17       1.0  0.77214  0.26078  0.17447  1.0000
  N   N12       1.0  0.70828  0.18807  0.28751  1.0000
  H   H18       1.0  0.69228  0.18375  0.22956  1.0000
  O   O4        1.0  0.93379  0.66806  0.39416  1.0000
  C   C33       1.0  0.54557  0.57764  0.31967  1.0000
  C   C34       1.0  0.59356  0.57787  0.31952  1.0000
  C   C35       1.0  0.64111  0.62563  0.31561  1.0000
  C   C36       1.0  0.64016  0.67220  0.32053  1.0000
  C   C37       1.0  0.59359  0.67320  0.32553  1.0000
  C   C38       1.0  0.54580  0.62566  0.32049  1.0000
  C   C39       1.0  0.59206  0.52980  0.31805  1.0000
  C   C40       1.0  0.49766  0.62402  0.32211  1.0000
  H   H19       1.0  0.67459  0.70658  0.32122  1.0000
  C   C41       1.0  0.49751  0.52950  0.31966  1.0000
  C   C42       1.0  0.49727  0.48148  0.32057  1.0000
  C   C43       1.0  0.44948  0.43393  0.32548  1.0000
  C   C44       1.0  0.40292  0.43493  0.32049  1.0000
  C   C45       1.0  0.40197  0.48151  0.31554  1.0000
  C   C46       1.0  0.44952  0.52927  0.31939  1.0000
  C   C47       1.0  0.54542  0.48312  0.32231  1.0000
  H   H20       1.0  0.36848  0.40057  0.32116  1.0000
  C   C48       1.0  0.45102  0.57734  0.31781  1.0000
  H   H21       1.0  0.54802  0.45042  0.32578  1.0000
  H   H22       1.0  0.62490  0.52736  0.31519  1.0000
  H   H23       1.0  0.41818  0.57977  0.31487  1.0000
  H   H24       1.0  0.49506  0.65673  0.32549  1.0000
  C   C49       1.0  0.59722  0.72158  0.34093  1.0000
  C   C50       1.0  0.68971  0.62916  0.30434  1.0000
  C   C51       1.0  0.44581  0.38554  0.34084  1.0000
  C   C52       1.0  0.35335  0.47795  0.30424  1.0000
  O   O5        1.0  0.63589  0.75569  0.39438  1.0000
  O   O6        1.0  0.72536  0.66796  0.25286  1.0000
  O   O7        1.0  0.40701  0.35118  0.39381  1.0000
  O   O8        1.0  0.31781  0.43928  0.25246  1.0000
  C   C53       1.0  0.49757  0.05363  0.31973  1.0000
  C   C54       1.0  0.49735  0.10140  0.31952  1.0000
  C   C55       1.0  0.44959  0.10120  0.31560  1.0000
  C   C56       1.0  0.40302  0.05368  0.32059  1.0000
  C   C57       1.0  0.40201  0.00612  0.32566  1.0000
  C   C58       1.0  0.44954  0.00585  0.32060  1.0000
  C   C59       1.0  0.54542  0.14797  0.31799  1.0000
  C   C60       1.0  0.45117  0.95934  0.32223  1.0000
  H   H25       1.0  0.36865  0.05376  0.32129  1.0000
  C   C61       1.0  0.54570  0.05370  0.31973  1.0000
  C   C62       1.0  0.59373  0.10149  0.32060  1.0000
  C   C63       1.0  0.64127  0.10122  0.32562  1.0000
  C   C64       1.0  0.64025  0.05365  0.32060  1.0000
  C   C65       1.0  0.59368  0.00614  0.31558  1.0000
  C   C66       1.0  0.54592  0.00593  0.31949  1.0000
  C   C67       1.0  0.59210  0.14799  0.32229  1.0000
  H   H26       1.0  0.67462  0.05358  0.32129  1.0000
  C   C68       1.0  0.49785  0.95937  0.31791  1.0000
  H   H27       1.0  0.62481  0.18330  0.32570  1.0000
  H   H28       1.0  0.54788  0.18324  0.31505  1.0000
  H   H29       1.0  0.49540  0.92409  0.31498  1.0000
  H   H30       1.0  0.41845  0.92404  0.32557  1.0000
  C   C69       1.0  0.35366  0.96136  0.34112  1.0000
  C   C70       1.0  0.44605  0.14627  0.30435  1.0000
  C   C71       1.0  0.68965  0.14595  0.34098  1.0000
  C   C72       1.0  0.59721  0.96107  0.30426  1.0000
  O   O9        1.0  0.31946  0.96597  0.39429  1.0000
  O   O10       1.0  0.40743  0.14309  0.25234  1.0000
  O   O11       1.0  0.72398  0.14150  0.39401  1.0000
  O   O12       1.0  0.63602  0.96425  0.25281  1.0000
  C   C73       1.0  0.29245  0.50357  0.34814  1.0000
  N   N13       1.0  0.21599  0.50304  0.39122  1.0000
  C   C74       1.0  0.26032  0.50437  0.41641  1.0000
  N   N14       1.0  0.26797  0.50209  0.50401  1.0000
  H   H31       1.0  0.29754  0.50061  0.52692  1.0000
  H   H32       1.0  0.24314  0.50128  0.54660  1.0000
  N   N15       1.0  0.33592  0.50074  0.36188  1.0000
  H   H33       1.0  0.35383  0.51248  0.41814  1.0000
  C   C75       1.0  0.57175  0.87456  0.34808  1.0000
  N   N16       1.0  0.57234  0.79866  0.39114  1.0000
  C   C76       1.0  0.57101  0.84166  0.41634  1.0000
  N   N17       1.0  0.57330  0.85158  0.50393  1.0000
  H   H34       1.0  0.57488  0.88269  0.52683  1.0000
  H   H35       1.0  0.57422  0.82763  0.54652  1.0000
  N   N18       1.0  0.57446  0.92080  0.36184  1.0000
  H   H36       1.0  0.56272  0.92696  0.41811  1.0000
  C   C77       1.0  0.20063  0.78288  0.34815  1.0000
  N   N19       1.0  0.27649  0.85943  0.39124  1.0000
  C   C78       1.0  0.23349  0.81509  0.41642  1.0000
  N   N20       1.0  0.22360  0.80740  0.50402  1.0000
  H   H37       1.0  0.19256  0.77780  0.52693  1.0000
  H   H38       1.0  0.24758  0.83225  0.54662  1.0000
  N   N21       1.0  0.15441  0.73933  0.36191  1.0000
  H   H39       1.0  0.14825  0.72145  0.41820  1.0000
  C   C79       1.0  0.75076  0.60372  0.34822  1.0000
  N   N22       1.0  0.82731  0.60440  0.39129  1.0000
  C   C80       1.0  0.78298  0.60307  0.41649  1.0000
  N   N23       1.0  0.77529  0.60529  0.50408  1.0000
  H   H40       1.0  0.74568  0.60670  0.52698  1.0000
  H   H41       1.0  0.80013  0.60614  0.54668  1.0000
  N   N24       1.0  0.70722  0.60641  0.36195  1.0000
  H   H42       1.0  0.68937  0.59476  0.41827  1.0000
  C   C81       1.0  0.47161  0.23276  0.34819  1.0000
  N   N25       1.0  0.47094  0.30863  0.39122  1.0000
  C   C82       1.0  0.47233  0.26566  0.41644  1.0000
  N   N26       1.0  0.47004  0.25575  0.50404  1.0000
  H   H43       1.0  0.46862  0.22472  0.52697  1.0000
  H   H44       1.0  0.46919  0.27975  0.54662  1.0000
  N   N27       1.0  0.46889  0.18652  0.36194  1.0000
  H   H45       1.0  0.48050  0.18029  0.41828  1.0000
  C   C83       1.0  0.84257  0.32444  0.34810  1.0000
  N   N28       1.0  0.76665  0.24797  0.39119  1.0000
  C   C84       1.0  0.80965  0.29231  0.41638  1.0000
  N   N29       1.0  0.81956  0.29997  0.50397  1.0000
  H   H46       1.0  0.85067  0.32950  0.52686  1.0000
  H   H47       1.0  0.79560  0.27511  0.54657  1.0000
  N   N30       1.0  0.88884  0.36792  0.36187  1.0000
  H   H48       1.0  0.89496  0.38587  0.41808  1.0000
