data_image0
_chemical_formula_structural       C8HC7HCH3C2H2C3H2C2H2NC3H2C2H2NC3H2C2H2NC3H2C2H2NC3H2C2H2NC3H2C2H2NHC2H2C8HC7HCH4C4H4C8HC7HCH4C4H4C7H3NO2NC7H3NO2NC7H3NO2NC7H3NO2NC7H3NO2NC7H3NO2N
_chemical_formula_sum              "C132 H72 N18 O12"
_cell_length_a       40.4258
_cell_length_b       40.4258
_cell_length_c       14.9891
_cell_angle_alpha    89.9998
_cell_angle_beta     90.0002
_cell_angle_gamma    120

_space_group_name_H-M_alt    "P 1"
_space_group_IT_number       1

loop_
  _space_group_symop_operation_xyz
  'x, y, z'

loop_
  _atom_site_type_symbol
  _atom_site_label
  _atom_site_symmetry_multiplicity
  _atom_site_fract_x
  _atom_site_fract_y
  _atom_site_fract_z
  _atom_site_occupancy
  C   C1        1.0  0.02349  0.52193  0.34751  1.0000
  C   C2        1.0  0.04274  0.50041  0.34399  1.0000
  C   C3        1.0  0.08337  0.51959  0.34024  1.0000
  C   C4        1.0  0.10405  0.55979  0.34761  1.0000
  C   C5        1.0  0.08562  0.58140  0.35553  1.0000
  C   C6        1.0  0.04513  0.56262  0.35182  1.0000
  C   C7        1.0  0.02049  0.46010  0.34586  1.0000
  C   C8        1.0  0.02547  0.58332  0.35207  1.0000
  H   H1        1.0  0.13339  0.57379  0.34726  1.0000
  C   C9        1.0  0.98262  0.50282  0.34739  1.0000
  C   C10       1.0  0.96097  0.46213  0.35151  1.0000
  C   C11       1.0  0.92047  0.44333  0.35487  1.0000
  C   C12       1.0  0.90206  0.46495  0.34701  1.0000
  C   C13       1.0  0.92274  0.50516  0.33986  1.0000
  C   C14       1.0  0.96336  0.52434  0.34383  1.0000
  C   C15       1.0  0.98063  0.44143  0.35185  1.0000
  H   H2        1.0  0.87272  0.45096  0.34654  1.0000
  C   C16       1.0  0.98561  0.56465  0.34587  1.0000
  H   H3        1.0  0.96609  0.41220  0.35360  1.0000
  H   H4        1.0  0.03306  0.44354  0.34579  1.0000
  H   H5        1.0  0.04001  0.61254  0.35409  1.0000
  C   C17       1.0  0.10837  0.61974  0.37518  1.0000
  C   C18       1.0  0.89772  0.40500  0.37462  1.0000
  H   H6        1.0  0.11199  0.62716  0.43911  1.0000
  H   H7        1.0  0.89470  0.39751  0.43847  1.0000
  C   C19       1.0  0.33531  0.49836  0.31965  1.0000
  C   C20       1.0  0.28778  0.51389  0.26342  1.0000
  C   C21       1.0  0.32432  0.51792  0.25935  1.0000
  H   H8        1.0  0.28169  0.53021  0.22175  1.0000
  H   H9        1.0  0.34358  0.53687  0.21442  1.0000
  C   C22       1.0  0.16987  0.48916  0.27321  1.0000
  C   C23       1.0  0.20208  0.48471  0.26433  1.0000
  H   H10       1.0  0.15465  0.48750  0.21725  1.0000
  H   H11       1.0  0.20884  0.47912  0.20246  1.0000
  N   N1        1.0  0.37187  0.50767  0.31486  1.0000
  C   C24       1.0  0.51668  0.85841  0.31953  1.0000
  C   C25       1.0  0.50124  0.79536  0.26335  1.0000
  C   C26       1.0  0.49714  0.82784  0.25929  1.0000
  H   H12       1.0  0.48493  0.77293  0.22174  1.0000
  H   H13       1.0  0.47814  0.82808  0.21442  1.0000
  C   C27       1.0  0.52613  0.70230  0.27319  1.0000
  C   C28       1.0  0.53056  0.73896  0.26428  1.0000
  H   H14       1.0  0.52780  0.68874  0.21725  1.0000
  H   H15       1.0  0.53614  0.75129  0.20238  1.0000
  N   N2        1.0  0.50726  0.88558  0.31474  1.0000
  C   C29       1.0  0.15674  0.67999  0.31957  1.0000
  C   C30       1.0  0.21978  0.72756  0.26335  1.0000
  C   C31       1.0  0.18727  0.69101  0.25926  1.0000
  H   H16       1.0  0.24218  0.73368  0.22165  1.0000
  H   H17       1.0  0.18698  0.67177  0.21428  1.0000
  C   C32       1.0  0.31289  0.84551  0.27321  1.0000
  C   C33       1.0  0.27625  0.81328  0.26433  1.0000
  H   H18       1.0  0.32644  0.86075  0.21727  1.0000
  H   H19       1.0  0.26389  0.80652  0.20245  1.0000
  N   N3        1.0  0.12949  0.64343  0.31474  1.0000
  C   C34       1.0  0.67052  0.52585  0.31950  1.0000
  C   C35       1.0  0.71812  0.51039  0.26334  1.0000
  C   C36       1.0  0.68153  0.50628  0.25932  1.0000
  H   H20       1.0  0.72423  0.49407  0.22175  1.0000
  H   H21       1.0  0.66228  0.48725  0.21450  1.0000
  C   C37       1.0  0.83613  0.53543  0.27292  1.0000
  C   C38       1.0  0.80387  0.53980  0.26405  1.0000
  H   H22       1.0  0.85135  0.53710  0.21695  1.0000
  H   H23       1.0  0.79707  0.54534  0.20216  1.0000
  N   N4        1.0  0.63393  0.51643  0.31470  1.0000
  C   C39       1.0  0.48936  0.16623  0.31971  1.0000
  C   C40       1.0  0.50482  0.22927  0.26349  1.0000
  C   C41       1.0  0.50894  0.19681  0.25951  1.0000
  H   H24       1.0  0.52114  0.25171  0.22190  1.0000
  H   H25       1.0  0.52797  0.19657  0.21472  1.0000
  C   C42       1.0  0.47980  0.32226  0.27298  1.0000
  C   C43       1.0  0.47542  0.28562  0.26414  1.0000
  H   H26       1.0  0.47813  0.33581  0.21700  1.0000
  H   H27       1.0  0.46989  0.27328  0.20225  1.0000
  N   N5        1.0  0.49879  0.13906  0.31498  1.0000
  C   C44       1.0  0.84906  0.34470  0.31944  1.0000
  C   C45       1.0  0.78601  0.29708  0.26333  1.0000
  C   C46       1.0  0.81847  0.33367  0.25928  1.0000
  H   H28       1.0  0.76356  0.29096  0.22175  1.0000
  H   H29       1.0  0.81869  0.35292  0.21444  1.0000
  C   C47       1.0  0.69304  0.17908  0.27304  1.0000
  C   C48       1.0  0.72967  0.21133  0.26413  1.0000
  H   H30       1.0  0.67948  0.16385  0.21709  1.0000
  H   H31       1.0  0.74200  0.21812  0.20223  1.0000
  N   N6        1.0  0.87623  0.38130  0.31462  1.0000
  H   H32       1.0  0.97304  0.58121  0.34584  1.0000
  C   C49       1.0  0.90230  0.52377  0.32254  1.0000
  C   C50       1.0  0.10383  0.50102  0.32279  1.0000
  H   H33       1.0  0.91029  0.54175  0.27129  1.0000
  H   H34       1.0  0.09579  0.48298  0.27164  1.0000
  C   C51       1.0  0.49334  0.52314  0.34753  1.0000
  C   C52       1.0  0.51486  0.56391  0.34402  1.0000
  C   C53       1.0  0.49570  0.58538  0.34035  1.0000
  C   C54       1.0  0.45550  0.56586  0.34775  1.0000
  C   C55       1.0  0.43388  0.52582  0.35564  1.0000
  C   C56       1.0  0.45265  0.50410  0.35188  1.0000
  C   C57       1.0  0.55518  0.58197  0.34583  1.0000
  C   C58       1.0  0.43194  0.46374  0.35212  1.0000
  H   H35       1.0  0.44150  0.58121  0.34743  1.0000
  C   C59       1.0  0.51244  0.50137  0.34738  1.0000
  C   C60       1.0  0.55313  0.52041  0.35152  1.0000
  C   C61       1.0  0.57191  0.49870  0.35496  1.0000
  C   C62       1.0  0.55028  0.45865  0.34708  1.0000
  C   C63       1.0  0.51007  0.43914  0.33986  1.0000
  C   C64       1.0  0.49091  0.46060  0.34383  1.0000
  C   C65       1.0  0.57384  0.56076  0.35181  1.0000
  H   H36       1.0  0.56427  0.44330  0.34664  1.0000
  C   C66       1.0  0.45060  0.44254  0.34582  1.0000
  H   H37       1.0  0.60306  0.57544  0.35371  1.0000
  H   H38       1.0  0.57174  0.61109  0.34591  1.0000
  H   H39       1.0  0.43403  0.41342  0.34589  1.0000
  H   H40       1.0  0.40272  0.44907  0.35419  1.0000
  C   C67       1.0  0.39555  0.51024  0.37535  1.0000
  C   C68       1.0  0.49146  0.40009  0.32256  1.0000
  C   C69       1.0  0.61024  0.51426  0.37469  1.0000
  C   C70       1.0  0.51427  0.62441  0.32283  1.0000
  H   H41       1.0  0.38808  0.50644  0.43923  1.0000
  H   H42       1.0  0.47347  0.39008  0.27135  1.0000
  H   H43       1.0  0.61774  0.51876  0.43853  1.0000
  H   H44       1.0  0.53234  0.63440  0.27174  1.0000
  C   C71       1.0  0.49207  0.99185  0.34753  1.0000
  C   C72       1.0  0.45130  0.97264  0.34402  1.0000
  C   C73       1.0  0.42980  0.93201  0.34014  1.0000
  C   C74       1.0  0.44929  0.91129  0.34743  1.0000
  C   C75       1.0  0.48933  0.92967  0.35535  1.0000
  C   C76       1.0  0.51108  0.97016  0.35175  1.0000
  C   C77       1.0  0.43329  0.99494  0.34596  1.0000
  C   C78       1.0  0.55143  0.98977  0.35200  1.0000
  H   H45       1.0  0.43391  0.88195  0.34703  1.0000
  C   C79       1.0  0.51388  0.03272  0.34754  1.0000
  C   C80       1.0  0.49488  0.05440  0.35184  1.0000
  C   C81       1.0  0.51663  0.09489  0.35545  1.0000
  C   C82       1.0  0.55667  0.11327  0.34745  1.0000
  C   C83       1.0  0.57615  0.09255  0.34009  1.0000
  C   C84       1.0  0.55465  0.05192  0.34395  1.0000
  C   C85       1.0  0.45452  0.03479  0.35217  1.0000
  H   H46       1.0  0.57204  0.14261  0.34706  1.0000
  C   C86       1.0  0.57267  0.02963  0.34580  1.0000
  H   H47       1.0  0.43987  0.04936  0.35411  1.0000
  H   H48       1.0  0.40417  0.98240  0.34601  1.0000
  H   H49       1.0  0.60179  0.04216  0.34584  1.0000
  H   H50       1.0  0.56608  0.97520  0.35392  1.0000
  C   C87       1.0  0.50486  0.90687  0.37499  1.0000
  C   C88       1.0  0.61519  0.11295  0.32271  1.0000
  C   C89       1.0  0.50109  0.11768  0.37516  1.0000
  C   C90       1.0  0.39076  0.91162  0.32286  1.0000
  H   H51       1.0  0.50910  0.90362  0.43885  1.0000
  H   H52       1.0  0.62516  0.10496  0.27144  1.0000
  H   H53       1.0  0.49672  0.12086  0.43897  1.0000
  H   H54       1.0  0.38079  0.91960  0.27155  1.0000
  C   C91       1.0  0.30805  0.47262  0.38194  1.0000
  C   C92       1.0  0.27138  0.46911  0.38578  1.0000
  C   C93       1.0  0.26098  0.49002  0.32797  1.0000
  C   C94       1.0  0.22576  0.48961  0.33849  1.0000
  C   C95       1.0  0.21572  0.49822  0.42225  1.0000
  C   C96       1.0  0.18381  0.50318  0.43082  1.0000
  C   C97       1.0  0.16054  0.49877  0.35657  1.0000
  H   H55       1.0  0.23300  0.50350  0.47660  1.0000
  H   H56       1.0  0.17858  0.51158  0.49113  1.0000
  H   H57       1.0  0.25218  0.45122  0.43220  1.0000
  N   N7        1.0  0.31762  0.45079  0.43903  1.0000
  O   O1        1.0  0.31521  0.45770  0.51981  1.0000
  O   O2        1.0  0.29640  0.41561  0.42573  1.0000
  N   N8        1.0  0.13450  0.50939  0.36607  1.0000
  C   C98       1.0  0.54249  0.85697  0.38175  1.0000
  C   C99       1.0  0.54607  0.82385  0.38560  1.0000
  C   C100      1.0  0.52518  0.79251  0.32785  1.0000
  C   C101      1.0  0.52564  0.75773  0.33841  1.0000
  C   C102      1.0  0.51705  0.73910  0.42219  1.0000
  C   C103      1.0  0.51211  0.70223  0.43080  1.0000
  C   C104      1.0  0.51653  0.68337  0.35657  1.0000
  H   H58       1.0  0.51175  0.75110  0.47652  1.0000
  H   H59       1.0  0.50371  0.68861  0.49111  1.0000
  H   H60       1.0  0.56400  0.82259  0.43197  1.0000
  N   N9        1.0  0.56432  0.88839  0.43877  1.0000
  O   O3        1.0  0.55746  0.87909  0.51957  1.0000
  O   O4        1.0  0.59950  0.90240  0.42536  1.0000
  N   N10       1.0  0.50591  0.64672  0.36609  1.0000
  C   C105      1.0  0.15823  0.70723  0.38192  1.0000
  C   C106      1.0  0.19138  0.74391  0.38579  1.0000
  C   C107      1.0  0.22270  0.75435  0.32794  1.0000
  C   C108      1.0  0.25749  0.78958  0.33847  1.0000
  C   C109      1.0  0.27614  0.79962  0.42223  1.0000
  C   C110      1.0  0.31300  0.83156  0.43080  1.0000
  C   C111      1.0  0.33184  0.85485  0.35657  1.0000
  H   H61       1.0  0.26416  0.78233  0.47657  1.0000
  H   H62       1.0  0.32663  0.83680  0.49111  1.0000
  H   H63       1.0  0.19269  0.76309  0.43224  1.0000
  N   N11       1.0  0.12684  0.69764  0.43904  1.0000
  O   O5        1.0  0.13618  0.70003  0.51981  1.0000
  O   O6        1.0  0.11286  0.71884  0.42580  1.0000
  N   N12       1.0  0.36848  0.88093  0.36609  1.0000
  C   C112      1.0  0.69779  0.55170  0.38163  1.0000
  C   C113      1.0  0.73450  0.55529  0.38544  1.0000
  C   C114      1.0  0.74493  0.53438  0.32773  1.0000
  C   C115      1.0  0.78019  0.53488  0.33823  1.0000
  C   C116      1.0  0.79029  0.52633  0.42201  1.0000
  C   C117      1.0  0.82225  0.52145  0.43057  1.0000
  C   C118      1.0  0.84552  0.52588  0.35629  1.0000
  H   H64       1.0  0.77301  0.52104  0.47637  1.0000
  H   H65       1.0  0.82752  0.51310  0.49088  1.0000
  H   H66       1.0  0.75371  0.57326  0.43174  1.0000
  N   N13       1.0  0.68824  0.57357  0.43859  1.0000
  O   O7        1.0  0.69071  0.56676  0.51941  1.0000
  O   O8        1.0  0.70940  0.60875  0.42506  1.0000
  N   N14       1.0  0.87161  0.51533  0.36580  1.0000
  C   C119      1.0  0.46350  0.16765  0.38181  1.0000
  C   C120      1.0  0.45991  0.20076  0.38558  1.0000
  C   C121      1.0  0.48083  0.23211  0.32786  1.0000
  C   C122      1.0  0.48033  0.26687  0.33833  1.0000
  C   C123      1.0  0.48886  0.28551  0.42210  1.0000
  C   C124      1.0  0.49375  0.32236  0.43064  1.0000
  C   C125      1.0  0.48933  0.34119  0.35635  1.0000
  H   H67       1.0  0.49415  0.27353  0.47648  1.0000
  H   H68       1.0  0.50210  0.33598  0.49095  1.0000
  H   H69       1.0  0.44194  0.20201  0.43186  1.0000
  N   N15       1.0  0.44164  0.13622  0.43877  1.0000
  O   O9        1.0  0.44844  0.14551  0.51959  1.0000
  O   O10       1.0  0.40646  0.12220  0.42521  1.0000
  N   N16       1.0  0.49989  0.37783  0.36583  1.0000
  C   C126      1.0  0.84766  0.31744  0.38159  1.0000
  C   C127      1.0  0.81455  0.28074  0.38543  1.0000
  C   C128      1.0  0.78319  0.27028  0.32774  1.0000
  C   C129      1.0  0.74844  0.23502  0.33828  1.0000
  C   C130      1.0  0.72982  0.22494  0.42208  1.0000
  C   C131      1.0  0.69297  0.19298  0.43068  1.0000
  C   C132      1.0  0.67412  0.16970  0.35643  1.0000
  H   H70       1.0  0.74181  0.24223  0.47642  1.0000
  H   H71       1.0  0.67936  0.18773  0.49100  1.0000
  H   H72       1.0  0.81331  0.26153  0.43175  1.0000
  N   N17       1.0  0.87909  0.32702  0.43854  1.0000
  O   O11       1.0  0.86982  0.32456  0.51937  1.0000
  O   O12       1.0  0.89311  0.30587  0.42502  1.0000
  N   N18       1.0  0.63748  0.14363  0.36596  1.0000
