data_image0
_chemical_formula_structural       C13H8C12H2CH3CH2CH2NH2CH3C12H8C2O4HC2HCH5NHC6HC6H2CH3CH3CH3NHNHC13H8C12H2CH3CH2CH2NH2CH3C12H8C2O4HC2HCH5NHC6HC6H2CH3CH3CH3NHNHC13H8C12H2CH3CH2CH2NH2CH3C12H8C2O4HC2HCH5NHC6HC6H2CH3CH3CH3NHNHC13H8C12H2CH3CH2CH2NH2CH3C12H8C2O4HC2HCH5NHC6HC6H2CH3CH3CH3NHNH
_chemical_formula_sum              "C244 H208 N16 O16"
_cell_length_a       39.4422
_cell_length_b       39.4422
_cell_length_c       15.019
_cell_angle_alpha    90
_cell_angle_beta     90
_cell_angle_gamma    90

_space_group_name_H-M_alt    "P 1"
_space_group_IT_number       1

loop_
  _space_group_symop_operation_xyz
  'x, y, z'

loop_
  _atom_site_type_symbol
  _atom_site_label
  _atom_site_symmetry_multiplicity
  _atom_site_fract_x
  _atom_site_fract_y
  _atom_site_fract_z
  _atom_site_occupancy
  C   C1        1.0  0.00432  0.08046  0.26332  1.0000
  C   C2        1.0  0.47335  0.06537  0.23745  1.0000
  C   C3        1.0  0.47221  0.04114  0.16910  1.0000
  C   C4        1.0  0.00183  0.03056  0.12298  1.0000
  C   C5        1.0  0.03302  0.04409  0.15394  1.0000
  C   C6        1.0  0.03424  0.06876  0.22146  1.0000
  C   C7        1.0  0.50008  0.50137  0.05624  1.0000
  C   C8        1.0  0.49957  0.47163  0.12133  1.0000
  C   C9        1.0  0.03011  0.46049  0.16226  1.0000
  C   C10       1.0  0.03016  0.43708  0.23270  1.0000
  C   C11       1.0  0.49943  0.42434  0.26737  1.0000
  C   C12       1.0  0.46877  0.43593  0.22956  1.0000
  C   C13       1.0  0.46891  0.45909  0.15840  1.0000
  H   H1        1.0  0.44601  0.46759  0.13581  1.0000
  H   H2        1.0  0.44594  0.42730  0.25277  1.0000
  H   H3        1.0  0.05289  0.43011  0.25994  1.0000
  H   H4        1.0  0.05296  0.47005  0.14221  1.0000
  H   H5        1.0  0.05549  0.03593  0.12780  1.0000
  H   H6        1.0  0.44912  0.03098  0.15357  1.0000
  H   H7        1.0  0.45111  0.07170  0.26827  1.0000
  H   H8        1.0  0.05739  0.07856  0.23840  1.0000
  C   C14       1.0  0.49894  0.39902  0.33467  1.0000
  C   C15       1.0  0.00541  0.10798  0.32511  1.0000
  C   C16       1.0  0.01454  0.34009  0.36785  1.0000
  C   C17       1.0  0.48183  0.32604  0.37795  1.0000
  C   C18       1.0  0.47672  0.29110  0.39337  1.0000
  C   C19       1.0  0.00549  0.26925  0.39674  1.0000
  C   C20       1.0  0.03884  0.28309  0.39275  1.0000
  C   C21       1.0  0.04263  0.31832  0.37893  1.0000
  C   C22       1.0  0.00072  0.23394  0.38174  1.0000
  C   C23       1.0  0.49615  0.22240  0.29236  1.0000
  C   C24       1.0  0.48901  0.18784  0.27781  1.0000
  C   C25       1.0  0.48720  0.16453  0.34850  1.0000
  H   H9        1.0  0.48543  0.17919  0.21411  1.0000
  H   H10       1.0  0.46107  0.34072  0.36495  1.0000
  C   C26       1.0  0.49799  0.24408  0.21095  1.0000
  H   H11       1.0  0.50445  0.27042  0.22419  1.0000
  H   H12       1.0  0.47354  0.24380  0.17683  1.0000
  H   H13       1.0  0.01725  0.23410  0.16575  1.0000
  C   C27       1.0  0.07053  0.26249  0.39498  1.0000
  H   H14       1.0  0.08372  0.26463  0.33131  1.0000
  H   H15       1.0  0.06611  0.23568  0.40789  1.0000
  C   C28       1.0  0.44086  0.27914  0.39713  1.0000
  H   H16       1.0  0.43844  0.25233  0.41325  1.0000
  H   H17       1.0  0.42857  0.28350  0.33300  1.0000
  N   N1        1.0  0.48005  0.13149  0.32970  1.0000
  H   H18       1.0  0.46056  0.12827  0.29083  1.0000
  H   H19       1.0  0.33992  0.47920  0.27379  1.0000
  C   C29       1.0  0.27604  0.48104  0.22146  1.0000
  H   H20       1.0  0.24859  0.48319  0.21563  1.0000
  H   H21       1.0  0.28316  0.45568  0.19916  1.0000
  H   H22       1.0  0.28731  0.49963  0.17643  1.0000
  C   C30       1.0  0.46993  0.00428  0.65959  1.0000
  C   C31       1.0  0.02883  0.49940  0.65504  1.0000
  C   C32       1.0  0.03894  0.46792  0.61746  1.0000
  C   C33       1.0  0.06240  0.46604  0.54721  1.0000
  C   C34       1.0  0.07646  0.49573  0.50976  1.0000
  C   C35       1.0  0.06527  0.02731  0.54312  1.0000
  C   C36       1.0  0.04173  0.02900  0.61319  1.0000
  C   C37       1.0  0.45967  0.03625  0.62555  1.0000
  C   C38       1.0  0.43478  0.03925  0.55932  1.0000
  C   C39       1.0  0.41883  0.01037  0.52222  1.0000
  C   C40       1.0  0.42995  0.47828  0.55295  1.0000
  C   C41       1.0  0.45528  0.47538  0.61851  1.0000
  H   H23       1.0  0.06957  0.44258  0.52490  1.0000
  H   H24       1.0  0.02900  0.44567  0.64057  1.0000
  H   H25       1.0  0.07364  0.04951  0.51559  1.0000
  H   H26       1.0  0.03376  0.05248  0.63294  1.0000
  H   H27       1.0  0.47059  0.05810  0.64822  1.0000
  H   H28       1.0  0.42830  0.06317  0.53912  1.0000
  H   H29       1.0  0.41950  0.45637  0.52946  1.0000
  H   H30       1.0  0.46294  0.45158  0.63639  1.0000
  C   C42       1.0  0.10249  0.49325  0.44436  1.0000
  C   C43       1.0  0.39055  0.01463  0.46346  1.0000
  O   O1        1.0  0.37635  0.04592  0.45842  1.0000
  O   O2        1.0  0.03527  0.11457  0.36645  1.0000
  O   O3        1.0  0.10163  0.46658  0.38753  1.0000
  O   O4        1.0  0.47427  0.40091  0.39722  1.0000
  H   H31       1.0  0.06648  0.32803  0.36969  1.0000
  C   C44       1.0  0.99243  0.17603  0.43607  1.0000
  C   C45       1.0  0.99892  0.21062  0.45428  1.0000
  H   H32       1.0  0.99079  0.15893  0.48723  1.0000
  C   C46       1.0  0.00321  0.22028  0.54952  1.0000
  H   H33       1.0  0.00822  0.24718  0.55933  1.0000
  H   H34       1.0  0.02443  0.20624  0.57817  1.0000
  H   H35       1.0  0.98023  0.21398  0.58654  1.0000
  H   H36       1.0  0.08718  0.27189  0.44755  1.0000
  H   H37       1.0  0.42714  0.29324  0.44828  1.0000
  N   N2        1.0  0.01981  0.37150  0.33043  1.0000
  H   H38       1.0  0.03775  0.37219  0.28568  1.0000
  C   C47       1.0  0.16137  0.00718  0.40984  1.0000
  C   C48       1.0  0.17618  0.47469  0.41632  1.0000
  C   C49       1.0  0.21103  0.46918  0.40040  1.0000
  C   C50       1.0  0.23190  0.99747  0.37833  1.0000
  C   C51       1.0  0.21724  0.03025  0.36699  1.0000
  C   C52       1.0  0.18222  0.03439  0.38325  1.0000
  H   H39       1.0  0.17189  0.05822  0.38086  1.0000
  C   C53       1.0  0.26769  0.99455  0.38797  1.0000
  C   C54       1.0  0.28885  0.48674  0.31359  1.0000
  C   C55       1.0  0.32432  0.48438  0.32659  1.0000
  C   C56       1.0  0.33899  0.49028  0.41050  1.0000
  C   C57       1.0  0.31762  0.99695  0.48354  1.0000
  C   C58       1.0  0.28218  0.99943  0.47416  1.0000
  H   H40       1.0  0.32832  0.00029  0.54513  1.0000
  H   H41       1.0  0.16199  0.45508  0.44083  1.0000
  C   C59       1.0  0.26286  0.00730  0.55718  1.0000
  H   H42       1.0  0.23559  0.00927  0.54763  1.0000
  H   H43       1.0  0.27155  0.03143  0.58460  1.0000
  H   H44       1.0  0.26729  0.98744  0.60650  1.0000
  C   C60       1.0  0.23684  0.06149  0.34511  1.0000
  H   H45       1.0  0.22592  0.07363  0.28642  1.0000
  H   H46       1.0  0.26347  0.05668  0.33071  1.0000
  H   H47       1.0  0.23559  0.07922  0.40086  1.0000
  C   C61       1.0  0.22393  0.43408  0.41524  1.0000
  H   H48       1.0  0.22045  0.42701  0.48494  1.0000
  H   H49       1.0  0.25066  0.43101  0.39897  1.0000
  H   H50       1.0  0.20977  0.41632  0.37367  1.0000
  N   N3        1.0  0.37330  0.48892  0.42298  1.0000
  H   H51       1.0  0.38353  0.46659  0.41788  1.0000
  N   N4        1.0  0.13004  0.01413  0.44526  1.0000
  H   H52       1.0  0.12958  0.03342  0.48583  1.0000
  C   C62       1.0  0.00432  0.58047  0.26332  1.0000
  C   C63       1.0  0.47335  0.56537  0.23745  1.0000
  C   C64       1.0  0.47221  0.54114  0.16910  1.0000
  C   C65       1.0  0.00183  0.53056  0.12298  1.0000
  C   C66       1.0  0.03302  0.54408  0.15394  1.0000
  C   C67       1.0  0.03424  0.56876  0.22146  1.0000
  C   C68       1.0  0.50008  0.00137  0.05624  1.0000
  C   C69       1.0  0.49957  0.97164  0.12133  1.0000
  C   C70       1.0  0.03011  0.96049  0.16226  1.0000
  C   C71       1.0  0.03016  0.93708  0.23270  1.0000
  C   C72       1.0  0.49943  0.92434  0.26737  1.0000
  C   C73       1.0  0.46877  0.93593  0.22956  1.0000
  C   C74       1.0  0.46891  0.95909  0.15840  1.0000
  H   H53       1.0  0.44601  0.96759  0.13581  1.0000
  H   H54       1.0  0.44594  0.92730  0.25277  1.0000
  H   H55       1.0  0.05289  0.93011  0.25994  1.0000
  H   H56       1.0  0.05296  0.97005  0.14221  1.0000
  H   H57       1.0  0.05549  0.53593  0.12780  1.0000
  H   H58       1.0  0.44912  0.53098  0.15357  1.0000
  H   H59       1.0  0.45111  0.57170  0.26827  1.0000
  H   H60       1.0  0.05739  0.57856  0.23840  1.0000
  C   C75       1.0  0.49894  0.89902  0.33467  1.0000
  C   C76       1.0  0.00541  0.60798  0.32511  1.0000
  C   C77       1.0  0.01454  0.84008  0.36785  1.0000
  C   C78       1.0  0.48183  0.82603  0.37795  1.0000
  C   C79       1.0  0.47672  0.79110  0.39337  1.0000
  C   C80       1.0  0.00549  0.76925  0.39674  1.0000
  C   C81       1.0  0.03884  0.78310  0.39275  1.0000
  C   C82       1.0  0.04263  0.81832  0.37893  1.0000
  C   C83       1.0  0.00072  0.73394  0.38174  1.0000
  C   C84       1.0  0.49615  0.72240  0.29236  1.0000
  C   C85       1.0  0.48901  0.68784  0.27781  1.0000
  C   C86       1.0  0.48720  0.66453  0.34850  1.0000
  H   H61       1.0  0.48543  0.67919  0.21411  1.0000
  H   H62       1.0  0.46107  0.84072  0.36495  1.0000
  C   C87       1.0  0.49799  0.74408  0.21095  1.0000
  H   H63       1.0  0.50445  0.77042  0.22419  1.0000
  H   H64       1.0  0.47354  0.74380  0.17683  1.0000
  H   H65       1.0  0.01725  0.73410  0.16575  1.0000
  C   C88       1.0  0.07053  0.76249  0.39498  1.0000
  H   H66       1.0  0.08372  0.76463  0.33131  1.0000
  H   H67       1.0  0.06611  0.73568  0.40789  1.0000
  C   C89       1.0  0.44086  0.77914  0.39713  1.0000
  H   H68       1.0  0.43844  0.75233  0.41325  1.0000
  H   H69       1.0  0.42857  0.78350  0.33300  1.0000
  N   N5        1.0  0.48005  0.63149  0.32970  1.0000
  H   H70       1.0  0.46056  0.62827  0.29083  1.0000
  H   H71       1.0  0.33992  0.97920  0.27379  1.0000
  C   C90       1.0  0.27604  0.98104  0.22146  1.0000
  H   H72       1.0  0.24859  0.98319  0.21563  1.0000
  H   H73       1.0  0.28316  0.95568  0.19916  1.0000
  H   H74       1.0  0.28731  0.99963  0.17643  1.0000
  C   C91       1.0  0.46993  0.50428  0.65959  1.0000
  C   C92       1.0  0.02883  0.99940  0.65504  1.0000
  C   C93       1.0  0.03894  0.96792  0.61746  1.0000
  C   C94       1.0  0.06240  0.96604  0.54721  1.0000
  C   C95       1.0  0.07646  0.99573  0.50976  1.0000
  C   C96       1.0  0.06527  0.52731  0.54312  1.0000
  C   C97       1.0  0.04173  0.52900  0.61319  1.0000
  C   C98       1.0  0.45967  0.53625  0.62555  1.0000
  C   C99       1.0  0.43478  0.53925  0.55932  1.0000
  C   C100      1.0  0.41883  0.51037  0.52222  1.0000
  C   C101      1.0  0.42995  0.97828  0.55295  1.0000
  C   C102      1.0  0.45528  0.97538  0.61851  1.0000
  H   H75       1.0  0.06957  0.94258  0.52490  1.0000
  H   H76       1.0  0.02900  0.94567  0.64057  1.0000
  H   H77       1.0  0.07364  0.54951  0.51559  1.0000
  H   H78       1.0  0.03376  0.55248  0.63294  1.0000
  H   H79       1.0  0.47059  0.55810  0.64822  1.0000
  H   H80       1.0  0.42830  0.56317  0.53912  1.0000
  H   H81       1.0  0.41950  0.95637  0.52946  1.0000
  H   H82       1.0  0.46294  0.95158  0.63639  1.0000
  C   C103      1.0  0.10249  0.99325  0.44436  1.0000
  C   C104      1.0  0.39055  0.51463  0.46346  1.0000
  O   O5        1.0  0.37635  0.54592  0.45842  1.0000
  O   O6        1.0  0.03527  0.61457  0.36645  1.0000
  O   O7        1.0  0.10163  0.96658  0.38753  1.0000
  O   O8        1.0  0.47427  0.90091  0.39722  1.0000
  H   H83       1.0  0.06648  0.82803  0.36969  1.0000
  C   C105      1.0  0.99243  0.67603  0.43607  1.0000
  C   C106      1.0  0.99892  0.71062  0.45428  1.0000
  H   H84       1.0  0.99079  0.65893  0.48723  1.0000
  C   C107      1.0  0.00321  0.72028  0.54952  1.0000
  H   H85       1.0  0.00822  0.74718  0.55933  1.0000
  H   H86       1.0  0.02443  0.70624  0.57817  1.0000
  H   H87       1.0  0.98023  0.71398  0.58654  1.0000
  H   H88       1.0  0.08718  0.77189  0.44755  1.0000
  H   H89       1.0  0.42714  0.79324  0.44828  1.0000
  N   N6        1.0  0.01981  0.87150  0.33043  1.0000
  H   H90       1.0  0.03775  0.87220  0.28568  1.0000
  C   C108      1.0  0.16137  0.50718  0.40984  1.0000
  C   C109      1.0  0.17618  0.97468  0.41632  1.0000
  C   C110      1.0  0.21103  0.96918  0.40040  1.0000
  C   C111      1.0  0.23190  0.49747  0.37833  1.0000
  C   C112      1.0  0.21724  0.53025  0.36699  1.0000
  C   C113      1.0  0.18222  0.53439  0.38325  1.0000
  H   H91       1.0  0.17189  0.55822  0.38086  1.0000
  C   C114      1.0  0.26769  0.49455  0.38797  1.0000
  C   C115      1.0  0.28885  0.98673  0.31359  1.0000
  C   C116      1.0  0.32432  0.98438  0.32659  1.0000
  C   C117      1.0  0.33899  0.99028  0.41050  1.0000
  C   C118      1.0  0.31762  0.49695  0.48354  1.0000
  C   C119      1.0  0.28218  0.49943  0.47416  1.0000
  H   H92       1.0  0.32832  0.50029  0.54513  1.0000
  H   H93       1.0  0.16199  0.95508  0.44083  1.0000
  C   C120      1.0  0.26286  0.50730  0.55718  1.0000
  H   H94       1.0  0.23559  0.50927  0.54763  1.0000
  H   H95       1.0  0.27155  0.53143  0.58460  1.0000
  H   H96       1.0  0.26729  0.48744  0.60650  1.0000
  C   C121      1.0  0.23684  0.56149  0.34511  1.0000
  H   H97       1.0  0.22592  0.57363  0.28642  1.0000
  H   H98       1.0  0.26347  0.55668  0.33071  1.0000
  H   H99       1.0  0.23559  0.57922  0.40086  1.0000
  C   C122      1.0  0.22393  0.93408  0.41524  1.0000
  H   H100      1.0  0.22045  0.92701  0.48494  1.0000
  H   H101      1.0  0.25066  0.93101  0.39897  1.0000
  H   H102      1.0  0.20977  0.91632  0.37367  1.0000
  N   N7        1.0  0.37330  0.98892  0.42298  1.0000
  H   H103      1.0  0.38353  0.96659  0.41788  1.0000
  N   N8        1.0  0.13004  0.51413  0.44526  1.0000
  H   H104      1.0  0.12958  0.53342  0.48583  1.0000
  C   C123      1.0  0.50432  0.08046  0.26332  1.0000
  C   C124      1.0  0.97335  0.06537  0.23745  1.0000
  C   C125      1.0  0.97221  0.04114  0.16910  1.0000
  C   C126      1.0  0.50183  0.03056  0.12298  1.0000
  C   C127      1.0  0.53302  0.04409  0.15394  1.0000
  C   C128      1.0  0.53424  0.06876  0.22146  1.0000
  C   C129      1.0  0.00007  0.50137  0.05624  1.0000
  C   C130      1.0  0.99957  0.47163  0.12133  1.0000
  C   C131      1.0  0.53011  0.46049  0.16226  1.0000
  C   C132      1.0  0.53016  0.43708  0.23270  1.0000
  C   C133      1.0  0.99943  0.42434  0.26737  1.0000
  C   C134      1.0  0.96877  0.43593  0.22956  1.0000
  C   C135      1.0  0.96891  0.45909  0.15840  1.0000
  H   H105      1.0  0.94601  0.46759  0.13581  1.0000
  H   H106      1.0  0.94594  0.42730  0.25277  1.0000
  H   H107      1.0  0.55289  0.43011  0.25994  1.0000
  H   H108      1.0  0.55296  0.47005  0.14221  1.0000
  H   H109      1.0  0.55549  0.03593  0.12780  1.0000
  H   H110      1.0  0.94912  0.03098  0.15357  1.0000
  H   H111      1.0  0.95111  0.07170  0.26827  1.0000
  H   H112      1.0  0.55739  0.07856  0.23840  1.0000
  C   C136      1.0  0.99894  0.39902  0.33467  1.0000
  C   C137      1.0  0.50541  0.10798  0.32511  1.0000
  C   C138      1.0  0.51454  0.34009  0.36785  1.0000
  C   C139      1.0  0.98183  0.32604  0.37795  1.0000
  C   C140      1.0  0.97672  0.29110  0.39337  1.0000
  C   C141      1.0  0.50549  0.26925  0.39674  1.0000
  C   C142      1.0  0.53884  0.28309  0.39275  1.0000
  C   C143      1.0  0.54263  0.31832  0.37893  1.0000
  C   C144      1.0  0.50072  0.23394  0.38174  1.0000
  C   C145      1.0  0.99615  0.22240  0.29236  1.0000
  C   C146      1.0  0.98900  0.18784  0.27781  1.0000
  C   C147      1.0  0.98720  0.16453  0.34850  1.0000
  H   H113      1.0  0.98543  0.17919  0.21411  1.0000
  H   H114      1.0  0.96107  0.34072  0.36495  1.0000
  C   C148      1.0  0.99799  0.24408  0.21095  1.0000
  H   H115      1.0  0.00445  0.27042  0.22419  1.0000
  H   H116      1.0  0.97354  0.24380  0.17683  1.0000
  H   H117      1.0  0.51725  0.23410  0.16575  1.0000
  C   C149      1.0  0.57053  0.26249  0.39498  1.0000
  H   H118      1.0  0.58371  0.26463  0.33131  1.0000
  H   H119      1.0  0.56611  0.23568  0.40789  1.0000
  C   C150      1.0  0.94086  0.27914  0.39713  1.0000
  H   H120      1.0  0.93844  0.25233  0.41325  1.0000
  H   H121      1.0  0.92857  0.28350  0.33300  1.0000
  N   N9        1.0  0.98005  0.13149  0.32970  1.0000
  H   H122      1.0  0.96056  0.12827  0.29083  1.0000
  H   H123      1.0  0.83993  0.47920  0.27379  1.0000
  C   C151      1.0  0.77604  0.48104  0.22146  1.0000
  H   H124      1.0  0.74859  0.48319  0.21563  1.0000
  H   H125      1.0  0.78316  0.45568  0.19916  1.0000
  H   H126      1.0  0.78731  0.49963  0.17643  1.0000
  C   C152      1.0  0.96993  0.00428  0.65959  1.0000
  C   C153      1.0  0.52883  0.49940  0.65504  1.0000
  C   C154      1.0  0.53894  0.46792  0.61746  1.0000
  C   C155      1.0  0.56240  0.46604  0.54721  1.0000
  C   C156      1.0  0.57646  0.49573  0.50976  1.0000
  C   C157      1.0  0.56527  0.02731  0.54312  1.0000
  C   C158      1.0  0.54173  0.02900  0.61319  1.0000
  C   C159      1.0  0.95967  0.03625  0.62555  1.0000
  C   C160      1.0  0.93478  0.03925  0.55932  1.0000
  C   C161      1.0  0.91883  0.01037  0.52222  1.0000
  C   C162      1.0  0.92995  0.47828  0.55295  1.0000
  C   C163      1.0  0.95528  0.47538  0.61851  1.0000
  H   H127      1.0  0.56957  0.44258  0.52490  1.0000
  H   H128      1.0  0.52900  0.44567  0.64057  1.0000
  H   H129      1.0  0.57364  0.04951  0.51559  1.0000
  H   H130      1.0  0.53376  0.05248  0.63294  1.0000
  H   H131      1.0  0.97059  0.05810  0.64822  1.0000
  H   H132      1.0  0.92831  0.06317  0.53912  1.0000
  H   H133      1.0  0.91950  0.45637  0.52946  1.0000
  H   H134      1.0  0.96294  0.45158  0.63639  1.0000
  C   C164      1.0  0.60248  0.49325  0.44436  1.0000
  C   C165      1.0  0.89055  0.01463  0.46346  1.0000
  O   O9        1.0  0.87635  0.04592  0.45842  1.0000
  O   O10       1.0  0.53527  0.11457  0.36645  1.0000
  O   O11       1.0  0.60163  0.46658  0.38753  1.0000
  O   O12       1.0  0.97427  0.40091  0.39722  1.0000
  H   H135      1.0  0.56648  0.32803  0.36969  1.0000
  C   C166      1.0  0.49243  0.17603  0.43607  1.0000
  C   C167      1.0  0.49892  0.21062  0.45428  1.0000
  H   H136      1.0  0.49079  0.15893  0.48723  1.0000
  C   C168      1.0  0.50321  0.22028  0.54952  1.0000
  H   H137      1.0  0.50822  0.24718  0.55933  1.0000
  H   H138      1.0  0.52443  0.20624  0.57817  1.0000
  H   H139      1.0  0.48024  0.21398  0.58654  1.0000
  H   H140      1.0  0.58718  0.27189  0.44755  1.0000
  H   H141      1.0  0.92713  0.29324  0.44828  1.0000
  N   N10       1.0  0.51981  0.37150  0.33043  1.0000
  H   H142      1.0  0.53775  0.37219  0.28568  1.0000
  C   C169      1.0  0.66138  0.00718  0.40984  1.0000
  C   C170      1.0  0.67618  0.47469  0.41632  1.0000
  C   C171      1.0  0.71103  0.46918  0.40040  1.0000
  C   C172      1.0  0.73191  0.99747  0.37833  1.0000
  C   C173      1.0  0.71724  0.03025  0.36699  1.0000
  C   C174      1.0  0.68222  0.03439  0.38325  1.0000
  H   H143      1.0  0.67189  0.05822  0.38086  1.0000
  C   C175      1.0  0.76769  0.99455  0.38797  1.0000
  C   C176      1.0  0.78885  0.48674  0.31359  1.0000
  C   C177      1.0  0.82432  0.48438  0.32659  1.0000
  C   C178      1.0  0.83900  0.49028  0.41050  1.0000
  C   C179      1.0  0.81762  0.99695  0.48354  1.0000
  C   C180      1.0  0.78218  0.99943  0.47416  1.0000
  H   H144      1.0  0.82832  0.00029  0.54513  1.0000
  H   H145      1.0  0.66199  0.45508  0.44083  1.0000
  C   C181      1.0  0.76286  0.00730  0.55718  1.0000
  H   H146      1.0  0.73559  0.00927  0.54763  1.0000
  H   H147      1.0  0.77155  0.03143  0.58460  1.0000
  H   H148      1.0  0.76729  0.98744  0.60650  1.0000
  C   C182      1.0  0.73684  0.06149  0.34511  1.0000
  H   H149      1.0  0.72592  0.07363  0.28642  1.0000
  H   H150      1.0  0.76347  0.05668  0.33071  1.0000
  H   H151      1.0  0.73559  0.07922  0.40086  1.0000
  C   C183      1.0  0.72393  0.43408  0.41524  1.0000
  H   H152      1.0  0.72045  0.42701  0.48494  1.0000
  H   H153      1.0  0.75066  0.43101  0.39897  1.0000
  H   H154      1.0  0.70976  0.41632  0.37367  1.0000
  N   N11       1.0  0.87329  0.48892  0.42298  1.0000
  H   H155      1.0  0.88353  0.46659  0.41788  1.0000
  N   N12       1.0  0.63004  0.01413  0.44526  1.0000
  H   H156      1.0  0.62958  0.03342  0.48583  1.0000
  C   C184      1.0  0.50432  0.58047  0.26332  1.0000
  C   C185      1.0  0.97335  0.56537  0.23745  1.0000
  C   C186      1.0  0.97221  0.54114  0.16910  1.0000
  C   C187      1.0  0.50183  0.53056  0.12298  1.0000
  C   C188      1.0  0.53302  0.54408  0.15394  1.0000
  C   C189      1.0  0.53424  0.56876  0.22146  1.0000
  C   C190      1.0  0.00007  0.00137  0.05624  1.0000
  C   C191      1.0  0.99957  0.97164  0.12133  1.0000
  C   C192      1.0  0.53011  0.96049  0.16226  1.0000
  C   C193      1.0  0.53016  0.93708  0.23270  1.0000
  C   C194      1.0  0.99943  0.92434  0.26737  1.0000
  C   C195      1.0  0.96877  0.93593  0.22956  1.0000
  C   C196      1.0  0.96891  0.95909  0.15840  1.0000
  H   H157      1.0  0.94601  0.96759  0.13581  1.0000
  H   H158      1.0  0.94594  0.92730  0.25277  1.0000
  H   H159      1.0  0.55289  0.93011  0.25994  1.0000
  H   H160      1.0  0.55296  0.97005  0.14221  1.0000
  H   H161      1.0  0.55549  0.53593  0.12780  1.0000
  H   H162      1.0  0.94912  0.53098  0.15357  1.0000
  H   H163      1.0  0.95111  0.57170  0.26827  1.0000
  H   H164      1.0  0.55739  0.57856  0.23840  1.0000
  C   C197      1.0  0.99894  0.89902  0.33467  1.0000
  C   C198      1.0  0.50541  0.60798  0.32511  1.0000
  C   C199      1.0  0.51454  0.84008  0.36785  1.0000
  C   C200      1.0  0.98183  0.82603  0.37795  1.0000
  C   C201      1.0  0.97672  0.79110  0.39337  1.0000
  C   C202      1.0  0.50549  0.76925  0.39674  1.0000
  C   C203      1.0  0.53884  0.78310  0.39275  1.0000
  C   C204      1.0  0.54263  0.81832  0.37893  1.0000
  C   C205      1.0  0.50072  0.73394  0.38174  1.0000
  C   C206      1.0  0.99615  0.72240  0.29236  1.0000
  C   C207      1.0  0.98900  0.68784  0.27781  1.0000
  C   C208      1.0  0.98720  0.66453  0.34850  1.0000
  H   H165      1.0  0.98543  0.67919  0.21411  1.0000
  H   H166      1.0  0.96107  0.84072  0.36495  1.0000
  C   C209      1.0  0.99799  0.74408  0.21095  1.0000
  H   H167      1.0  0.00445  0.77042  0.22419  1.0000
  H   H168      1.0  0.97354  0.74380  0.17683  1.0000
  H   H169      1.0  0.51725  0.73410  0.16575  1.0000
  C   C210      1.0  0.57053  0.76249  0.39498  1.0000
  H   H170      1.0  0.58371  0.76463  0.33131  1.0000
  H   H171      1.0  0.56611  0.73568  0.40789  1.0000
  C   C211      1.0  0.94086  0.77914  0.39713  1.0000
  H   H172      1.0  0.93844  0.75233  0.41325  1.0000
  H   H173      1.0  0.92857  0.78350  0.33300  1.0000
  N   N13       1.0  0.98005  0.63149  0.32970  1.0000
  H   H174      1.0  0.96056  0.62827  0.29083  1.0000
  H   H175      1.0  0.83993  0.97920  0.27379  1.0000
  C   C212      1.0  0.77604  0.98104  0.22146  1.0000
  H   H176      1.0  0.74859  0.98319  0.21563  1.0000
  H   H177      1.0  0.78316  0.95568  0.19916  1.0000
  H   H178      1.0  0.78731  0.99963  0.17643  1.0000
  C   C213      1.0  0.96993  0.50428  0.65959  1.0000
  C   C214      1.0  0.52883  0.99940  0.65504  1.0000
  C   C215      1.0  0.53894  0.96792  0.61746  1.0000
  C   C216      1.0  0.56240  0.96604  0.54721  1.0000
  C   C217      1.0  0.57646  0.99573  0.50976  1.0000
  C   C218      1.0  0.56527  0.52731  0.54312  1.0000
  C   C219      1.0  0.54173  0.52900  0.61319  1.0000
  C   C220      1.0  0.95967  0.53625  0.62555  1.0000
  C   C221      1.0  0.93478  0.53925  0.55932  1.0000
  C   C222      1.0  0.91883  0.51037  0.52222  1.0000
  C   C223      1.0  0.92995  0.97828  0.55295  1.0000
  C   C224      1.0  0.95528  0.97538  0.61851  1.0000
  H   H179      1.0  0.56957  0.94258  0.52490  1.0000
  H   H180      1.0  0.52900  0.94567  0.64057  1.0000
  H   H181      1.0  0.57364  0.54951  0.51559  1.0000
  H   H182      1.0  0.53376  0.55248  0.63294  1.0000
  H   H183      1.0  0.97059  0.55810  0.64822  1.0000
  H   H184      1.0  0.92831  0.56317  0.53912  1.0000
  H   H185      1.0  0.91950  0.95637  0.52946  1.0000
  H   H186      1.0  0.96294  0.95158  0.63639  1.0000
  C   C225      1.0  0.60248  0.99325  0.44436  1.0000
  C   C226      1.0  0.89055  0.51463  0.46346  1.0000
  O   O13       1.0  0.87635  0.54592  0.45842  1.0000
  O   O14       1.0  0.53527  0.61457  0.36645  1.0000
  O   O15       1.0  0.60163  0.96658  0.38753  1.0000
  O   O16       1.0  0.97427  0.90091  0.39722  1.0000
  H   H187      1.0  0.56648  0.82803  0.36969  1.0000
  C   C227      1.0  0.49243  0.67603  0.43607  1.0000
  C   C228      1.0  0.49892  0.71062  0.45428  1.0000
  H   H188      1.0  0.49079  0.65893  0.48723  1.0000
  C   C229      1.0  0.50321  0.72028  0.54952  1.0000
  H   H189      1.0  0.50822  0.74718  0.55933  1.0000
  H   H190      1.0  0.52443  0.70624  0.57817  1.0000
  H   H191      1.0  0.48024  0.71398  0.58654  1.0000
  H   H192      1.0  0.58718  0.77189  0.44755  1.0000
  H   H193      1.0  0.92713  0.79324  0.44828  1.0000
  N   N14       1.0  0.51981  0.87150  0.33043  1.0000
  H   H194      1.0  0.53775  0.87220  0.28568  1.0000
  C   C230      1.0  0.66138  0.50718  0.40984  1.0000
  C   C231      1.0  0.67618  0.97468  0.41632  1.0000
  C   C232      1.0  0.71103  0.96918  0.40040  1.0000
  C   C233      1.0  0.73191  0.49747  0.37833  1.0000
  C   C234      1.0  0.71724  0.53025  0.36699  1.0000
  C   C235      1.0  0.68222  0.53439  0.38325  1.0000
  H   H195      1.0  0.67189  0.55822  0.38086  1.0000
  C   C236      1.0  0.76769  0.49455  0.38797  1.0000
  C   C237      1.0  0.78885  0.98673  0.31359  1.0000
  C   C238      1.0  0.82432  0.98438  0.32659  1.0000
  C   C239      1.0  0.83900  0.99028  0.41050  1.0000
  C   C240      1.0  0.81762  0.49695  0.48354  1.0000
  C   C241      1.0  0.78218  0.49943  0.47416  1.0000
  H   H196      1.0  0.82832  0.50029  0.54513  1.0000
  H   H197      1.0  0.66199  0.95508  0.44083  1.0000
  C   C242      1.0  0.76286  0.50730  0.55718  1.0000
  H   H198      1.0  0.73559  0.50927  0.54763  1.0000
  H   H199      1.0  0.77155  0.53143  0.58460  1.0000
  H   H200      1.0  0.76729  0.48744  0.60650  1.0000
  C   C243      1.0  0.73684  0.56149  0.34511  1.0000
  H   H201      1.0  0.72592  0.57363  0.28642  1.0000
  H   H202      1.0  0.76347  0.55668  0.33071  1.0000
  H   H203      1.0  0.73559  0.57922  0.40086  1.0000
  C   C244      1.0  0.72393  0.93408  0.41524  1.0000
  H   H204      1.0  0.72045  0.92701  0.48494  1.0000
  H   H205      1.0  0.75066  0.93101  0.39897  1.0000
  H   H206      1.0  0.70976  0.91632  0.37367  1.0000
  N   N15       1.0  0.87329  0.98892  0.42298  1.0000
  H   H207      1.0  0.88353  0.96659  0.41788  1.0000
  N   N16       1.0  0.63004  0.51413  0.44526  1.0000
  H   H208      1.0  0.62958  0.53342  0.48583  1.0000
