data_image0
_chemical_formula_structural       C6H4C3HC4H2CH3C6HC6H4CH4CHC19H12C5H3CH5C6H4C3HC4H2CH3C6HC6H4CH4CHC19H12C5H3CH5C6H4C3HC4H2CH3C6HC6H4CH4CHC19H12C5H3CH5C6H4C3HC4H2CH3C6HC6H4CH4CHC19H12C5H3CH5
_chemical_formula_sum              "C212 H160"
_cell_length_a       32.7798
_cell_length_b       32.7802
_cell_length_c       15.0105
_cell_angle_alpha    90
_cell_angle_beta     90
_cell_angle_gamma    90.0514

_space_group_name_H-M_alt    "P 1"
_space_group_IT_number       1

loop_
  _space_group_symop_operation_xyz
  'x, y, z'

loop_
  _atom_site_type_symbol
  _atom_site_label
  _atom_site_symmetry_multiplicity
  _atom_site_fract_x
  _atom_site_fract_y
  _atom_site_fract_z
  _atom_site_occupancy
  C   C1        1.0  0.09097  0.03314  0.03799  1.0000
  C   C2        1.0  0.10605  0.49561  0.07080  1.0000
  C   C3        1.0  0.08367  0.45991  0.05065  1.0000
  C   C4        1.0  0.41254  0.46856  0.05052  1.0000
  C   C5        1.0  0.39755  0.00715  0.07673  1.0000
  C   C6        1.0  0.42022  0.04208  0.05256  1.0000
  H   H1        1.0  0.10619  0.05984  0.05022  1.0000
  H   H2        1.0  0.09300  0.43211  0.07413  1.0000
  H   H3        1.0  0.39678  0.44251  0.06578  1.0000
  H   H4        1.0  0.41043  0.07058  0.07052  1.0000
  C   C7        1.0  0.00277  0.26819  0.29270  1.0000
  C   C8        1.0  0.47470  0.29618  0.25585  1.0000
  C   C9        1.0  0.47672  0.33787  0.27757  1.0000
  H   H5        1.0  0.45449  0.35683  0.25366  1.0000
  C   C10       1.0  0.99281  0.22599  0.29135  1.0000
  C   C11       1.0  0.98683  0.14164  0.33354  1.0000
  C   C12       1.0  0.51079  0.15502  0.26073  1.0000
  C   C13       1.0  0.51402  0.19694  0.23837  1.0000
  H   H6        1.0  0.52772  0.13404  0.22630  1.0000
  H   H7        1.0  0.45063  0.28600  0.21842  1.0000
  C   C14       1.0  0.53992  0.20992  0.16207  1.0000
  H   H8        1.0  0.06466  0.22956  0.18493  1.0000
  H   H9        1.0  0.52135  0.22687  0.11440  1.0000
  H   H10       1.0  0.55347  0.18408  0.12701  1.0000
  C   C15       1.0  0.14552  0.99337  0.11096  1.0000
  C   C16       1.0  0.15957  0.02323  0.17193  1.0000
  C   C17       1.0  0.20143  0.02704  0.19406  1.0000
  C   C18       1.0  0.22982  0.99964  0.15457  1.0000
  C   C19       1.0  0.21536  0.46742  0.10057  1.0000
  C   C20       1.0  0.17391  0.46445  0.07891  1.0000
  H   H11       1.0  0.16562  0.44341  0.03185  1.0000
  C   C21       1.0  0.27208  0.00859  0.14794  1.0000
  C   C22       1.0  0.29998  0.98548  0.19896  1.0000
  C   C23       1.0  0.34194  0.98658  0.17969  1.0000
  C   C24       1.0  0.35700  0.01107  0.10960  1.0000
  C   C25       1.0  0.32900  0.53517  0.06090  1.0000
  C   C26       1.0  0.28663  0.53393  0.07767  1.0000
  H   H12       1.0  0.28967  0.96559  0.24653  1.0000
  H   H13       1.0  0.36119  0.96779  0.21429  1.0000
  H   H14       1.0  0.33928  0.55136  0.00696  1.0000
  H   H15       1.0  0.13928  0.04420  0.19620  1.0000
  C   C27       1.0  0.21517  0.06019  0.25482  1.0000
  H   H16       1.0  0.18976  0.07808  0.28099  1.0000
  H   H17       1.0  0.23568  0.08102  0.22012  1.0000
  H   H18       1.0  0.23137  0.04692  0.31134  1.0000
  H   H19       1.0  0.23545  0.44848  0.06850  1.0000
  C   C28       1.0  0.25869  0.55657  0.01667  1.0000
  H   H20       1.0  0.23996  0.07782  0.05461  1.0000
  C   C29       1.0  0.50401  0.39259  0.37598  1.0000
  C   C30       1.0  0.46633  0.40822  0.40677  1.0000
  C   C31       1.0  0.46484  0.44295  0.46174  1.0000
  C   C32       1.0  0.50091  0.46234  0.49256  1.0000
  C   C33       1.0  0.03796  0.44936  0.45244  1.0000
  C   C34       1.0  0.03962  0.41511  0.39631  1.0000
  C   C35       1.0  0.50030  0.99864  0.55633  1.0000
  C   C36       1.0  0.49745  0.03337  0.48869  1.0000
  C   C37       1.0  0.03235  0.05187  0.44981  1.0000
  C   C38       1.0  0.02899  0.08588  0.39310  1.0000
  C   C39       1.0  0.49032  0.10159  0.36951  1.0000
  C   C40       1.0  0.45537  0.07998  0.39790  1.0000
  C   C41       1.0  0.45902  0.04610  0.45462  1.0000
  C   C42       1.0  0.46594  0.00068  0.62500  1.0000
  C   C43       1.0  0.03683  0.49830  0.61945  1.0000
  C   C44       1.0  0.05653  0.03445  0.64883  1.0000
  C   C45       1.0  0.04964  0.46139  0.66055  1.0000
  C   C46       1.0  0.44672  0.46549  0.66087  1.0000
  C   C47       1.0  0.45410  0.03872  0.66251  1.0000
  H   H21       1.0  0.04697  0.06236  0.62705  1.0000
  H   H22       1.0  0.03517  0.43451  0.64644  1.0000
  H   H23       1.0  0.45575  0.43700  0.64175  1.0000
  H   H24       1.0  0.46830  0.06510  0.64349  1.0000
  H   H25       1.0  0.43269  0.03241  0.47562  1.0000
  H   H26       1.0  0.42679  0.09019  0.38181  1.0000
  H   H27       1.0  0.05512  0.10078  0.37460  1.0000
  H   H28       1.0  0.06097  0.04224  0.46655  1.0000
  H   H29       1.0  0.06484  0.46369  0.46714  1.0000
  H   H30       1.0  0.43685  0.45277  0.48252  1.0000
  H   H31       1.0  0.43964  0.39302  0.39442  1.0000
  H   H32       1.0  0.06752  0.40569  0.37365  1.0000
  C   C48       1.0  0.00655  0.35274  0.33741  1.0000
  C   C49       1.0  0.03586  0.32477  0.37010  1.0000
  C   C50       1.0  0.03438  0.28271  0.34966  1.0000
  C   C51       1.0  0.96664  0.21239  0.35998  1.0000
  C   C52       1.0  0.96360  0.17085  0.38058  1.0000
  H   H33       1.0  0.95229  0.23285  0.40105  1.0000
  H   H34       1.0  0.94737  0.16276  0.43615  1.0000
  H   H35       1.0  0.05662  0.33446  0.41648  1.0000
  C   C53       1.0  0.06377  0.25463  0.39443  1.0000
  H   H36       1.0  0.08605  0.27075  0.43555  1.0000
  H   H37       1.0  0.08071  0.23732  0.34469  1.0000
  H   H38       1.0  0.04743  0.23336  0.43751  1.0000
  H   H39       1.0  0.23876  0.53520  0.64845  1.0000
  H   H40       1.0  0.27500  0.07425  0.63295  1.0000
  C   C54       1.0  0.09096  0.53314  0.03797  1.0000
  C   C55       1.0  0.10606  0.99561  0.07079  1.0000
  C   C56       1.0  0.08369  0.95991  0.05065  1.0000
  C   C57       1.0  0.41255  0.96856  0.05051  1.0000
  C   C58       1.0  0.39754  0.50715  0.07674  1.0000
  C   C59       1.0  0.42021  0.54208  0.05256  1.0000
  H   H41       1.0  0.10618  0.55984  0.05021  1.0000
  H   H42       1.0  0.09301  0.93211  0.07412  1.0000
  H   H43       1.0  0.39678  0.94251  0.06578  1.0000
  H   H44       1.0  0.41042  0.57058  0.07053  1.0000
  C   C60       1.0  0.00277  0.76819  0.29270  1.0000
  C   C61       1.0  0.47470  0.79618  0.25585  1.0000
  C   C62       1.0  0.47672  0.83786  0.27757  1.0000
  H   H45       1.0  0.45449  0.85683  0.25366  1.0000
  C   C63       1.0  0.99281  0.72599  0.29135  1.0000
  C   C64       1.0  0.98683  0.64164  0.33354  1.0000
  C   C65       1.0  0.51079  0.65502  0.26073  1.0000
  C   C66       1.0  0.51402  0.69694  0.23837  1.0000
  H   H46       1.0  0.52772  0.63404  0.22630  1.0000
  H   H47       1.0  0.45063  0.78600  0.21842  1.0000
  C   C67       1.0  0.53992  0.70993  0.16207  1.0000
  H   H48       1.0  0.06466  0.72956  0.18493  1.0000
  H   H49       1.0  0.52135  0.72686  0.11440  1.0000
  H   H50       1.0  0.55347  0.68408  0.12701  1.0000
  C   C68       1.0  0.14550  0.49337  0.11097  1.0000
  C   C69       1.0  0.15952  0.52324  0.17193  1.0000
  C   C70       1.0  0.20139  0.52705  0.19407  1.0000
  C   C71       1.0  0.22973  0.49965  0.15457  1.0000
  C   C72       1.0  0.21540  0.96742  0.10057  1.0000
  C   C73       1.0  0.17395  0.96445  0.07893  1.0000
  H   H51       1.0  0.16564  0.94341  0.03187  1.0000
  C   C74       1.0  0.27203  0.50858  0.14793  1.0000
  C   C75       1.0  0.29994  0.48548  0.19894  1.0000
  C   C76       1.0  0.34192  0.48658  0.17969  1.0000
  C   C77       1.0  0.35699  0.51107  0.10960  1.0000
  C   C78       1.0  0.32902  0.03518  0.06089  1.0000
  C   C79       1.0  0.28666  0.03394  0.07765  1.0000
  H   H52       1.0  0.28964  0.46559  0.24652  1.0000
  H   H53       1.0  0.36117  0.46779  0.21430  1.0000
  H   H54       1.0  0.33929  0.05136  0.00695  1.0000
  H   H55       1.0  0.13924  0.54421  0.19621  1.0000
  C   C80       1.0  0.21515  0.56020  0.25483  1.0000
  H   H56       1.0  0.18974  0.57809  0.28100  1.0000
  H   H57       1.0  0.23566  0.58102  0.22011  1.0000
  H   H58       1.0  0.23135  0.54692  0.31133  1.0000
  H   H59       1.0  0.23549  0.94848  0.06850  1.0000
  C   C81       1.0  0.25870  0.05657  0.01667  1.0000
  H   H60       1.0  0.23995  0.57782  0.05460  1.0000
  C   C82       1.0  0.50401  0.89259  0.37598  1.0000
  C   C83       1.0  0.46633  0.90821  0.40677  1.0000
  C   C84       1.0  0.46484  0.94295  0.46174  1.0000
  C   C85       1.0  0.50091  0.96234  0.49256  1.0000
  C   C86       1.0  0.03796  0.94936  0.45244  1.0000
  C   C87       1.0  0.03962  0.91511  0.39631  1.0000
  C   C88       1.0  0.50029  0.49864  0.55633  1.0000
  C   C89       1.0  0.49745  0.53337  0.48869  1.0000
  C   C90       1.0  0.03235  0.55187  0.44981  1.0000
  C   C91       1.0  0.02899  0.58588  0.39310  1.0000
  C   C92       1.0  0.49032  0.60159  0.36951  1.0000
  C   C93       1.0  0.45537  0.57998  0.39790  1.0000
  C   C94       1.0  0.45902  0.54610  0.45462  1.0000
  C   C95       1.0  0.46594  0.50068  0.62500  1.0000
  C   C96       1.0  0.03683  0.99830  0.61945  1.0000
  C   C97       1.0  0.05653  0.53445  0.64882  1.0000
  C   C98       1.0  0.04965  0.96139  0.66055  1.0000
  C   C99       1.0  0.44673  0.96549  0.66087  1.0000
  C   C100      1.0  0.45409  0.53872  0.66252  1.0000
  H   H61       1.0  0.04696  0.56236  0.62703  1.0000
  H   H62       1.0  0.03517  0.93451  0.64646  1.0000
  H   H63       1.0  0.45575  0.93699  0.64174  1.0000
  H   H64       1.0  0.46829  0.56511  0.64350  1.0000
  H   H65       1.0  0.43269  0.53241  0.47562  1.0000
  H   H66       1.0  0.42679  0.59019  0.38181  1.0000
  H   H67       1.0  0.05512  0.60078  0.37460  1.0000
  H   H68       1.0  0.06097  0.54225  0.46655  1.0000
  H   H69       1.0  0.06484  0.96369  0.46715  1.0000
  H   H70       1.0  0.43685  0.95277  0.48252  1.0000
  H   H71       1.0  0.43964  0.89302  0.39442  1.0000
  H   H72       1.0  0.06752  0.90569  0.37365  1.0000
  C   C101      1.0  0.00655  0.85274  0.33741  1.0000
  C   C102      1.0  0.03586  0.82477  0.37010  1.0000
  C   C103      1.0  0.03438  0.78271  0.34966  1.0000
  C   C104      1.0  0.96664  0.71239  0.35998  1.0000
  C   C105      1.0  0.96360  0.67085  0.38058  1.0000
  H   H73       1.0  0.95229  0.73285  0.40105  1.0000
  H   H74       1.0  0.94737  0.66276  0.43615  1.0000
  H   H75       1.0  0.05662  0.83446  0.41648  1.0000
  C   C106      1.0  0.06377  0.75463  0.39443  1.0000
  H   H76       1.0  0.08605  0.77075  0.43555  1.0000
  H   H77       1.0  0.08071  0.73732  0.34469  1.0000
  H   H78       1.0  0.04743  0.73337  0.43751  1.0000
  H   H79       1.0  0.23877  0.03520  0.64846  1.0000
  H   H80       1.0  0.27499  0.57425  0.63295  1.0000
  C   C107      1.0  0.59097  0.03314  0.03799  1.0000
  C   C108      1.0  0.60605  0.49561  0.07080  1.0000
  C   C109      1.0  0.58367  0.45991  0.05065  1.0000
  C   C110      1.0  0.91254  0.46856  0.05052  1.0000
  C   C111      1.0  0.89755  0.00715  0.07673  1.0000
  C   C112      1.0  0.92022  0.04208  0.05256  1.0000
  H   H81       1.0  0.60619  0.05984  0.05022  1.0000
  H   H82       1.0  0.59300  0.43211  0.07413  1.0000
  H   H83       1.0  0.89678  0.44251  0.06578  1.0000
  H   H84       1.0  0.91043  0.07058  0.07052  1.0000
  C   C113      1.0  0.50277  0.26819  0.29270  1.0000
  C   C114      1.0  0.97470  0.29618  0.25585  1.0000
  C   C115      1.0  0.97672  0.33787  0.27757  1.0000
  H   H85       1.0  0.95449  0.35683  0.25366  1.0000
  C   C116      1.0  0.49281  0.22599  0.29135  1.0000
  C   C117      1.0  0.48683  0.14164  0.33354  1.0000
  C   C118      1.0  0.01080  0.15502  0.26073  1.0000
  C   C119      1.0  0.01402  0.19694  0.23837  1.0000
  H   H86       1.0  0.02772  0.13404  0.22630  1.0000
  H   H87       1.0  0.95063  0.28600  0.21842  1.0000
  C   C120      1.0  0.03992  0.20992  0.16207  1.0000
  H   H88       1.0  0.56466  0.22956  0.18493  1.0000
  H   H89       1.0  0.02135  0.22687  0.11440  1.0000
  H   H90       1.0  0.05347  0.18408  0.12701  1.0000
  C   C121      1.0  0.64552  0.99337  0.11096  1.0000
  C   C122      1.0  0.65957  0.02323  0.17193  1.0000
  C   C123      1.0  0.70143  0.02704  0.19406  1.0000
  C   C124      1.0  0.72982  0.99964  0.15457  1.0000
  C   C125      1.0  0.71536  0.46742  0.10057  1.0000
  C   C126      1.0  0.67391  0.46445  0.07891  1.0000
  H   H91       1.0  0.66562  0.44341  0.03185  1.0000
  C   C127      1.0  0.77208  0.00859  0.14794  1.0000
  C   C128      1.0  0.79998  0.98548  0.19896  1.0000
  C   C129      1.0  0.84195  0.98658  0.17969  1.0000
  C   C130      1.0  0.85700  0.01107  0.10960  1.0000
  C   C131      1.0  0.82901  0.53517  0.06090  1.0000
  C   C132      1.0  0.78664  0.53393  0.07767  1.0000
  H   H92       1.0  0.78967  0.96559  0.24653  1.0000
  H   H93       1.0  0.86119  0.96779  0.21429  1.0000
  H   H94       1.0  0.83928  0.55136  0.00696  1.0000
  H   H95       1.0  0.63927  0.04420  0.19620  1.0000
  C   C133      1.0  0.71517  0.06019  0.25482  1.0000
  H   H96       1.0  0.68976  0.07808  0.28099  1.0000
  H   H97       1.0  0.73568  0.08102  0.22012  1.0000
  H   H98       1.0  0.73137  0.04692  0.31134  1.0000
  H   H99       1.0  0.73545  0.44848  0.06850  1.0000
  C   C134      1.0  0.75869  0.55657  0.01667  1.0000
  H   H100      1.0  0.73996  0.07782  0.05461  1.0000
  C   C135      1.0  0.00401  0.39259  0.37598  1.0000
  C   C136      1.0  0.96633  0.40822  0.40677  1.0000
  C   C137      1.0  0.96484  0.44295  0.46174  1.0000
  C   C138      1.0  0.00090  0.46234  0.49256  1.0000
  C   C139      1.0  0.53796  0.44936  0.45244  1.0000
  C   C140      1.0  0.53962  0.41511  0.39631  1.0000
  C   C141      1.0  0.00030  0.99864  0.55633  1.0000
  C   C142      1.0  0.99745  0.03337  0.48869  1.0000
  C   C143      1.0  0.53235  0.05187  0.44981  1.0000
  C   C144      1.0  0.52899  0.08588  0.39310  1.0000
  C   C145      1.0  0.99032  0.10159  0.36951  1.0000
  C   C146      1.0  0.95537  0.07998  0.39790  1.0000
  C   C147      1.0  0.95902  0.04610  0.45462  1.0000
  C   C148      1.0  0.96594  0.00068  0.62500  1.0000
  C   C149      1.0  0.53683  0.49830  0.61945  1.0000
  C   C150      1.0  0.55654  0.03445  0.64883  1.0000
  C   C151      1.0  0.54964  0.46139  0.66055  1.0000
  C   C152      1.0  0.94672  0.46549  0.66087  1.0000
  C   C153      1.0  0.95410  0.03872  0.66251  1.0000
  H   H101      1.0  0.54697  0.06236  0.62705  1.0000
  H   H102      1.0  0.53517  0.43451  0.64644  1.0000
  H   H103      1.0  0.95575  0.43700  0.64175  1.0000
  H   H104      1.0  0.96829  0.06510  0.64349  1.0000
  H   H105      1.0  0.93269  0.03241  0.47562  1.0000
  H   H106      1.0  0.92678  0.09019  0.38181  1.0000
  H   H107      1.0  0.55512  0.10078  0.37460  1.0000
  H   H108      1.0  0.56097  0.04224  0.46655  1.0000
  H   H109      1.0  0.56484  0.46369  0.46714  1.0000
  H   H110      1.0  0.93685  0.45277  0.48252  1.0000
  H   H111      1.0  0.93964  0.39302  0.39442  1.0000
  H   H112      1.0  0.56752  0.40569  0.37365  1.0000
  C   C154      1.0  0.50655  0.35274  0.33741  1.0000
  C   C155      1.0  0.53586  0.32477  0.37010  1.0000
  C   C156      1.0  0.53438  0.28271  0.34966  1.0000
  C   C157      1.0  0.46664  0.21239  0.35998  1.0000
  C   C158      1.0  0.46360  0.17085  0.38058  1.0000
  H   H113      1.0  0.45229  0.23285  0.40105  1.0000
  H   H114      1.0  0.44737  0.16276  0.43615  1.0000
  H   H115      1.0  0.55662  0.33446  0.41648  1.0000
  C   C159      1.0  0.56377  0.25463  0.39443  1.0000
  H   H116      1.0  0.58605  0.27075  0.43555  1.0000
  H   H117      1.0  0.58071  0.23732  0.34469  1.0000
  H   H118      1.0  0.54743  0.23336  0.43751  1.0000
  H   H119      1.0  0.73876  0.53520  0.64845  1.0000
  H   H120      1.0  0.77500  0.07425  0.63295  1.0000
  C   C160      1.0  0.59096  0.53314  0.03797  1.0000
  C   C161      1.0  0.60606  0.99561  0.07079  1.0000
  C   C162      1.0  0.58369  0.95991  0.05065  1.0000
  C   C163      1.0  0.91255  0.96856  0.05051  1.0000
  C   C164      1.0  0.89754  0.50715  0.07674  1.0000
  C   C165      1.0  0.92021  0.54208  0.05256  1.0000
  H   H121      1.0  0.60618  0.55984  0.05021  1.0000
  H   H122      1.0  0.59301  0.93211  0.07412  1.0000
  H   H123      1.0  0.89678  0.94251  0.06578  1.0000
  H   H124      1.0  0.91042  0.57058  0.07053  1.0000
  C   C166      1.0  0.50277  0.76819  0.29270  1.0000
  C   C167      1.0  0.97470  0.79618  0.25585  1.0000
  C   C168      1.0  0.97672  0.83786  0.27757  1.0000
  H   H125      1.0  0.95449  0.85683  0.25366  1.0000
  C   C169      1.0  0.49281  0.72599  0.29135  1.0000
  C   C170      1.0  0.48683  0.64164  0.33354  1.0000
  C   C171      1.0  0.01080  0.65502  0.26073  1.0000
  C   C172      1.0  0.01402  0.69694  0.23837  1.0000
  H   H126      1.0  0.02772  0.63404  0.22630  1.0000
  H   H127      1.0  0.95063  0.78600  0.21842  1.0000
  C   C173      1.0  0.03992  0.70993  0.16207  1.0000
  H   H128      1.0  0.56466  0.72956  0.18493  1.0000
  H   H129      1.0  0.02135  0.72686  0.11440  1.0000
  H   H130      1.0  0.05347  0.68408  0.12701  1.0000
  C   C174      1.0  0.64550  0.49337  0.11097  1.0000
  C   C175      1.0  0.65952  0.52324  0.17193  1.0000
  C   C176      1.0  0.70139  0.52705  0.19407  1.0000
  C   C177      1.0  0.72973  0.49965  0.15457  1.0000
  C   C178      1.0  0.71540  0.96742  0.10057  1.0000
  C   C179      1.0  0.67395  0.96445  0.07893  1.0000
  H   H131      1.0  0.66565  0.94341  0.03187  1.0000
  C   C180      1.0  0.77203  0.50858  0.14793  1.0000
  C   C181      1.0  0.79994  0.48548  0.19894  1.0000
  C   C182      1.0  0.84192  0.48658  0.17969  1.0000
  C   C183      1.0  0.85699  0.51107  0.10960  1.0000
  C   C184      1.0  0.82902  0.03518  0.06089  1.0000
  C   C185      1.0  0.78666  0.03394  0.07765  1.0000
  H   H132      1.0  0.78965  0.46559  0.24652  1.0000
  H   H133      1.0  0.86117  0.46779  0.21430  1.0000
  H   H134      1.0  0.83929  0.05136  0.00695  1.0000
  H   H135      1.0  0.63923  0.54421  0.19621  1.0000
  C   C186      1.0  0.71515  0.56020  0.25483  1.0000
  H   H136      1.0  0.68974  0.57809  0.28100  1.0000
  H   H137      1.0  0.73567  0.58102  0.22011  1.0000
  H   H138      1.0  0.73135  0.54692  0.31133  1.0000
  H   H139      1.0  0.73549  0.94848  0.06850  1.0000
  C   C187      1.0  0.75870  0.05657  0.01667  1.0000
  H   H140      1.0  0.73995  0.57782  0.05460  1.0000
  C   C188      1.0  0.00401  0.89259  0.37598  1.0000
  C   C189      1.0  0.96633  0.90821  0.40677  1.0000
  C   C190      1.0  0.96484  0.94295  0.46174  1.0000
  C   C191      1.0  0.00091  0.96234  0.49256  1.0000
  C   C192      1.0  0.53796  0.94936  0.45244  1.0000
  C   C193      1.0  0.53962  0.91511  0.39631  1.0000
  C   C194      1.0  0.00030  0.49864  0.55633  1.0000
  C   C195      1.0  0.99745  0.53337  0.48869  1.0000
  C   C196      1.0  0.53235  0.55187  0.44981  1.0000
  C   C197      1.0  0.52899  0.58588  0.39310  1.0000
  C   C198      1.0  0.99032  0.60159  0.36951  1.0000
  C   C199      1.0  0.95537  0.57998  0.39790  1.0000
  C   C200      1.0  0.95902  0.54610  0.45462  1.0000
  C   C201      1.0  0.96594  0.50068  0.62500  1.0000
  C   C202      1.0  0.53683  0.99830  0.61945  1.0000
  C   C203      1.0  0.55653  0.53445  0.64882  1.0000
  C   C204      1.0  0.54965  0.96139  0.66055  1.0000
  C   C205      1.0  0.94673  0.96549  0.66087  1.0000
  C   C206      1.0  0.95409  0.53872  0.66252  1.0000
  H   H141      1.0  0.54696  0.56236  0.62703  1.0000
  H   H142      1.0  0.53518  0.93451  0.64646  1.0000
  H   H143      1.0  0.95575  0.93699  0.64174  1.0000
  H   H144      1.0  0.96829  0.56511  0.64350  1.0000
  H   H145      1.0  0.93269  0.53241  0.47562  1.0000
  H   H146      1.0  0.92678  0.59019  0.38181  1.0000
  H   H147      1.0  0.55512  0.60078  0.37460  1.0000
  H   H148      1.0  0.56097  0.54225  0.46655  1.0000
  H   H149      1.0  0.56484  0.96369  0.46715  1.0000
  H   H150      1.0  0.93685  0.95277  0.48252  1.0000
  H   H151      1.0  0.93964  0.89302  0.39442  1.0000
  H   H152      1.0  0.56752  0.90569  0.37365  1.0000
  C   C207      1.0  0.50655  0.85274  0.33741  1.0000
  C   C208      1.0  0.53586  0.82477  0.37010  1.0000
  C   C209      1.0  0.53438  0.78271  0.34966  1.0000
  C   C210      1.0  0.46664  0.71239  0.35998  1.0000
  C   C211      1.0  0.46360  0.67085  0.38058  1.0000
  H   H153      1.0  0.45229  0.73285  0.40105  1.0000
  H   H154      1.0  0.44737  0.66276  0.43615  1.0000
  H   H155      1.0  0.55662  0.83446  0.41648  1.0000
  C   C212      1.0  0.56377  0.75463  0.39443  1.0000
  H   H156      1.0  0.58605  0.77075  0.43555  1.0000
  H   H157      1.0  0.58071  0.73732  0.34469  1.0000
  H   H158      1.0  0.54743  0.73337  0.43751  1.0000
  H   H159      1.0  0.73877  0.03520  0.64846  1.0000
  H   H160      1.0  0.77499  0.57425  0.63295  1.0000
