data_image0
_chemical_formula_structural       C2HCN2C2HC6H3CHC2HC6H3CHC12HCH4N2C2NC2HNHCHC2NC2HNHCHC2HCN2C2HC6H3CHC2HC6H3CHC12HCH4N2C2NC2HNHCHC2NC2HNHCHC2HCN2C2HC6H3CHC2HC6H3CHC12HCH4N2C2NC2HNHCHC2NC2HNHCHC2HCN2C2HC6H3CHC2HC6H3CHC12HCH4N2C2NC2HNHCHC2NC2HNHCH
_chemical_formula_sum              "C176 H88 N32"
_cell_length_a       39.2986
_cell_length_b       39.2986
_cell_length_c       15.1132
_cell_angle_alpha    90
_cell_angle_beta     90
_cell_angle_gamma    90

_space_group_name_H-M_alt    "P 1"
_space_group_IT_number       1

loop_
  _space_group_symop_operation_xyz
  'x, y, z'

loop_
  _atom_site_type_symbol
  _atom_site_label
  _atom_site_symmetry_multiplicity
  _atom_site_fract_x
  _atom_site_fract_y
  _atom_site_fract_z
  _atom_site_occupancy
  C   C1        1.0  0.48609  0.00627  0.32214  1.0000
  C   C2        1.0  0.42694  0.02115  0.28446  1.0000
  H   H1        1.0  0.41939  0.07250  0.25056  1.0000
  C   C3        1.0  0.04591  0.99095  0.35462  1.0000
  N   N1        1.0  0.39261  0.01780  0.28825  1.0000
  N   N2        1.0  0.10477  0.46864  0.36087  1.0000
  C   C4        1.0  0.47928  0.20834  0.25176  1.0000
  C   C5        1.0  0.47702  0.17270  0.26122  1.0000
  H   H2        1.0  0.96249  0.15909  0.21749  1.0000
  C   C6        1.0  0.50198  0.26234  0.30732  1.0000
  C   C7        1.0  0.50528  0.33363  0.30301  1.0000
  C   C8        1.0  0.48574  0.31588  0.23937  1.0000
  C   C9        1.0  0.48385  0.28007  0.24048  1.0000
  C   C10       1.0  0.46410  0.26171  0.17874  1.0000
  C   C11       1.0  0.46186  0.22606  0.18430  1.0000
  H   H3        1.0  0.95089  0.27413  0.13017  1.0000
  H   H4        1.0  0.94709  0.21324  0.13959  1.0000
  H   H5        1.0  0.97230  0.32909  0.19250  1.0000
  C   C12       1.0  0.00532  0.36932  0.30344  1.0000
  H   H6        1.0  0.99169  0.38180  0.25576  1.0000
  C   C13       1.0  0.28406  0.51279  0.24892  1.0000
  C   C14       1.0  0.31979  0.51430  0.25676  1.0000
  H   H7        1.0  0.33334  0.02917  0.21368  1.0000
  C   C15       1.0  0.23005  0.49077  0.30621  1.0000
  C   C16       1.0  0.15872  0.48918  0.30628  1.0000
  C   C17       1.0  0.17632  0.50905  0.24305  1.0000
  C   C18       1.0  0.21217  0.51006  0.24191  1.0000
  C   C19       1.0  0.23043  0.52998  0.18035  1.0000
  C   C20       1.0  0.26617  0.53132  0.18381  1.0000
  H   H8        1.0  0.21789  0.04401  0.13357  1.0000
  H   H9        1.0  0.27892  0.04629  0.13945  1.0000
  H   H10       1.0  0.16300  0.02321  0.19785  1.0000
  C   C21       1.0  0.12304  0.98950  0.30810  1.0000
  H   H11       1.0  0.11045  0.00371  0.26179  1.0000
  C   C22       1.0  0.45155  0.49640  0.30936  1.0000
  C   C23       1.0  0.43756  0.05448  0.26458  1.0000
  C   C24       1.0  0.47043  0.06553  0.28784  1.0000
  C   C25       1.0  0.49539  0.04114  0.31283  1.0000
  C   C26       1.0  0.44335  0.46155  0.31663  1.0000
  C   C27       1.0  0.02999  0.04990  0.32347  1.0000
  C   C28       1.0  0.01124  0.48132  0.34407  1.0000
  C   C29       1.0  0.00218  0.44637  0.35157  1.0000
  C   C30       1.0  0.02743  0.42175  0.37257  1.0000
  C   C31       1.0  0.06048  0.43249  0.39507  1.0000
  C   C32       1.0  0.07080  0.46590  0.37489  1.0000
  C   C33       1.0  0.46767  0.43744  0.34110  1.0000
  H   H12       1.0  0.07896  0.41434  0.40440  1.0000
  C   C34       1.0  0.05431  0.02572  0.34756  1.0000
  H   H13       1.0  0.45929  0.41326  0.35221  1.0000
  H   H14       1.0  0.41983  0.45252  0.30089  1.0000
  H   H15       1.0  0.07824  0.03435  0.36085  1.0000
  H   H16       1.0  0.03875  0.07374  0.31029  1.0000
  N   N3        1.0  0.47322  0.09989  0.29299  1.0000
  N   N4        1.0  0.02533  0.38776  0.35798  1.0000
  C   C35       1.0  0.49475  0.15576  0.32979  1.0000
  C   C36       1.0  0.51479  0.17560  0.38776  1.0000
  N   N5        1.0  0.51642  0.20974  0.37786  1.0000
  C   C37       1.0  0.49964  0.22669  0.31298  1.0000
  C   C38       1.0  0.52338  0.31434  0.36636  1.0000
  H   H17       1.0  0.52826  0.16477  0.43835  1.0000
  N   N6        1.0  0.52092  0.28002  0.36677  1.0000
  H   H18       1.0  0.53774  0.32570  0.41435  1.0000
  C   C39       1.0  0.49379  0.12032  0.34088  1.0000
  H   H19       1.0  0.50715  0.10985  0.39218  1.0000
  C   C40       1.0  0.33687  0.49561  0.32333  1.0000
  C   C41       1.0  0.31711  0.47515  0.38050  1.0000
  N   N7        1.0  0.28288  0.47430  0.37232  1.0000
  C   C42       1.0  0.26579  0.49217  0.30969  1.0000
  C   C43       1.0  0.17814  0.47003  0.36718  1.0000
  H   H20       1.0  0.32804  0.46102  0.42971  1.0000
  N   N8        1.0  0.21250  0.47166  0.36552  1.0000
  H   H21       1.0  0.16689  0.45536  0.41473  1.0000
  C   C44       1.0  0.37233  0.49636  0.33391  1.0000
  H   H22       1.0  0.38282  0.48249  0.38425  1.0000
  C   C45       1.0  0.48609  0.50627  0.32214  1.0000
  C   C46       1.0  0.42694  0.52115  0.28446  1.0000
  H   H23       1.0  0.41939  0.57250  0.25056  1.0000
  C   C47       1.0  0.04591  0.49095  0.35462  1.0000
  N   N9        1.0  0.39261  0.51780  0.28825  1.0000
  N   N10       1.0  0.10477  0.96864  0.36087  1.0000
  C   C48       1.0  0.47928  0.70834  0.25176  1.0000
  C   C49       1.0  0.47702  0.67270  0.26122  1.0000
  H   H24       1.0  0.96249  0.65910  0.21749  1.0000
  C   C50       1.0  0.50198  0.76234  0.30732  1.0000
  C   C51       1.0  0.50528  0.83363  0.30301  1.0000
  C   C52       1.0  0.48574  0.81588  0.23937  1.0000
  C   C53       1.0  0.48385  0.78007  0.24048  1.0000
  C   C54       1.0  0.46410  0.76171  0.17874  1.0000
  C   C55       1.0  0.46186  0.72606  0.18430  1.0000
  H   H25       1.0  0.95089  0.77413  0.13017  1.0000
  H   H26       1.0  0.94709  0.71325  0.13959  1.0000
  H   H27       1.0  0.97230  0.82910  0.19250  1.0000
  C   C56       1.0  0.00532  0.86932  0.30344  1.0000
  H   H28       1.0  0.99169  0.88180  0.25576  1.0000
  C   C57       1.0  0.28406  0.01278  0.24892  1.0000
  C   C58       1.0  0.31979  0.01430  0.25676  1.0000
  H   H29       1.0  0.33334  0.52917  0.21368  1.0000
  C   C59       1.0  0.23005  0.99077  0.30621  1.0000
  C   C60       1.0  0.15872  0.98918  0.30628  1.0000
  C   C61       1.0  0.17632  0.00905  0.24305  1.0000
  C   C62       1.0  0.21217  0.01006  0.24191  1.0000
  C   C63       1.0  0.23043  0.02998  0.18035  1.0000
  C   C64       1.0  0.26617  0.03132  0.18381  1.0000
  H   H30       1.0  0.21789  0.54401  0.13357  1.0000
  H   H31       1.0  0.27892  0.54629  0.13945  1.0000
  H   H32       1.0  0.16300  0.52321  0.19785  1.0000
  C   C65       1.0  0.12304  0.48951  0.30810  1.0000
  H   H33       1.0  0.11045  0.50371  0.26179  1.0000
  C   C66       1.0  0.45155  0.99640  0.30936  1.0000
  C   C67       1.0  0.43756  0.55449  0.26458  1.0000
  C   C68       1.0  0.47043  0.56553  0.28784  1.0000
  C   C69       1.0  0.49539  0.54114  0.31283  1.0000
  C   C70       1.0  0.44335  0.96154  0.31663  1.0000
  C   C71       1.0  0.02999  0.54990  0.32347  1.0000
  C   C72       1.0  0.01124  0.98132  0.34407  1.0000
  C   C73       1.0  0.00218  0.94637  0.35157  1.0000
  C   C74       1.0  0.02743  0.92175  0.37257  1.0000
  C   C75       1.0  0.06048  0.93249  0.39507  1.0000
  C   C76       1.0  0.07080  0.96590  0.37489  1.0000
  C   C77       1.0  0.46767  0.93744  0.34110  1.0000
  H   H34       1.0  0.07896  0.91434  0.40440  1.0000
  C   C78       1.0  0.05431  0.52572  0.34756  1.0000
  H   H35       1.0  0.45929  0.91326  0.35221  1.0000
  H   H36       1.0  0.41983  0.95252  0.30089  1.0000
  H   H37       1.0  0.07824  0.53435  0.36085  1.0000
  H   H38       1.0  0.03875  0.57374  0.31029  1.0000
  N   N11       1.0  0.47322  0.59989  0.29299  1.0000
  N   N12       1.0  0.02533  0.88776  0.35798  1.0000
  C   C79       1.0  0.49475  0.65576  0.32979  1.0000
  C   C80       1.0  0.51479  0.67560  0.38776  1.0000
  N   N13       1.0  0.51642  0.70974  0.37786  1.0000
  C   C81       1.0  0.49964  0.72669  0.31298  1.0000
  C   C82       1.0  0.52338  0.81434  0.36636  1.0000
  H   H39       1.0  0.52826  0.66478  0.43835  1.0000
  N   N14       1.0  0.52092  0.78001  0.36677  1.0000
  H   H40       1.0  0.53774  0.82570  0.41435  1.0000
  C   C83       1.0  0.49379  0.62032  0.34088  1.0000
  H   H41       1.0  0.50715  0.60985  0.39218  1.0000
  C   C84       1.0  0.33687  0.99561  0.32333  1.0000
  C   C85       1.0  0.31711  0.97515  0.38050  1.0000
  N   N15       1.0  0.28288  0.97431  0.37232  1.0000
  C   C86       1.0  0.26579  0.99216  0.30969  1.0000
  C   C87       1.0  0.17814  0.97003  0.36718  1.0000
  H   H42       1.0  0.32804  0.96102  0.42971  1.0000
  N   N16       1.0  0.21250  0.97166  0.36552  1.0000
  H   H43       1.0  0.16689  0.95536  0.41473  1.0000
  C   C88       1.0  0.37233  0.99636  0.33391  1.0000
  H   H44       1.0  0.38282  0.98249  0.38425  1.0000
  C   C89       1.0  0.98609  0.00627  0.32214  1.0000
  C   C90       1.0  0.92693  0.02115  0.28446  1.0000
  H   H45       1.0  0.91939  0.07250  0.25056  1.0000
  C   C91       1.0  0.54592  0.99095  0.35462  1.0000
  N   N17       1.0  0.89261  0.01780  0.28825  1.0000
  N   N18       1.0  0.60477  0.46864  0.36087  1.0000
  C   C92       1.0  0.97928  0.20834  0.25176  1.0000
  C   C93       1.0  0.97702  0.17270  0.26122  1.0000
  H   H46       1.0  0.46249  0.15909  0.21749  1.0000
  C   C94       1.0  0.00198  0.26234  0.30732  1.0000
  C   C95       1.0  0.00528  0.33363  0.30301  1.0000
  C   C96       1.0  0.98574  0.31588  0.23937  1.0000
  C   C97       1.0  0.98385  0.28007  0.24048  1.0000
  C   C98       1.0  0.96410  0.26171  0.17874  1.0000
  C   C99       1.0  0.96186  0.22606  0.18430  1.0000
  H   H47       1.0  0.45089  0.27413  0.13017  1.0000
  H   H48       1.0  0.44709  0.21324  0.13959  1.0000
  H   H49       1.0  0.47230  0.32909  0.19250  1.0000
  C   C100      1.0  0.50532  0.36932  0.30344  1.0000
  H   H50       1.0  0.49169  0.38180  0.25576  1.0000
  C   C101      1.0  0.78406  0.51279  0.24892  1.0000
  C   C102      1.0  0.81979  0.51430  0.25676  1.0000
  H   H51       1.0  0.83334  0.02917  0.21368  1.0000
  C   C103      1.0  0.73006  0.49077  0.30621  1.0000
  C   C104      1.0  0.65872  0.48918  0.30628  1.0000
  C   C105      1.0  0.67632  0.50905  0.24305  1.0000
  C   C106      1.0  0.71217  0.51006  0.24191  1.0000
  C   C107      1.0  0.73043  0.52998  0.18035  1.0000
  C   C108      1.0  0.76617  0.53132  0.18381  1.0000
  H   H52       1.0  0.71789  0.04401  0.13357  1.0000
  H   H53       1.0  0.77892  0.04629  0.13945  1.0000
  H   H54       1.0  0.66300  0.02321  0.19785  1.0000
  C   C109      1.0  0.62304  0.98950  0.30810  1.0000
  H   H55       1.0  0.61045  0.00371  0.26179  1.0000
  C   C110      1.0  0.95154  0.49640  0.30936  1.0000
  C   C111      1.0  0.93755  0.05448  0.26458  1.0000
  C   C112      1.0  0.97043  0.06553  0.28784  1.0000
  C   C113      1.0  0.99540  0.04114  0.31283  1.0000
  C   C114      1.0  0.94335  0.46155  0.31663  1.0000
  C   C115      1.0  0.52999  0.04990  0.32347  1.0000
  C   C116      1.0  0.51125  0.48132  0.34407  1.0000
  C   C117      1.0  0.50218  0.44637  0.35157  1.0000
  C   C118      1.0  0.52743  0.42175  0.37257  1.0000
  C   C119      1.0  0.56049  0.43249  0.39507  1.0000
  C   C120      1.0  0.57081  0.46590  0.37489  1.0000
  C   C121      1.0  0.96767  0.43744  0.34110  1.0000
  H   H56       1.0  0.57896  0.41434  0.40440  1.0000
  C   C122      1.0  0.55431  0.02572  0.34756  1.0000
  H   H57       1.0  0.95929  0.41326  0.35221  1.0000
  H   H58       1.0  0.91983  0.45252  0.30089  1.0000
  H   H59       1.0  0.57824  0.03435  0.36085  1.0000
  H   H60       1.0  0.53875  0.07374  0.31029  1.0000
  N   N19       1.0  0.97322  0.09989  0.29299  1.0000
  N   N20       1.0  0.52533  0.38776  0.35798  1.0000
  C   C123      1.0  0.99475  0.15576  0.32979  1.0000
  C   C124      1.0  0.01479  0.17560  0.38776  1.0000
  N   N21       1.0  0.01642  0.20974  0.37786  1.0000
  C   C125      1.0  0.99964  0.22669  0.31298  1.0000
  C   C126      1.0  0.02338  0.31434  0.36636  1.0000
  H   H61       1.0  0.02826  0.16477  0.43835  1.0000
  N   N22       1.0  0.02091  0.28002  0.36677  1.0000
  H   H62       1.0  0.03774  0.32570  0.41435  1.0000
  C   C127      1.0  0.99379  0.12032  0.34088  1.0000
  H   H63       1.0  0.00715  0.10985  0.39218  1.0000
  C   C128      1.0  0.83687  0.49561  0.32333  1.0000
  C   C129      1.0  0.81711  0.47515  0.38050  1.0000
  N   N23       1.0  0.78289  0.47430  0.37232  1.0000
  C   C130      1.0  0.76579  0.49217  0.30969  1.0000
  C   C131      1.0  0.67814  0.47003  0.36718  1.0000
  H   H64       1.0  0.82804  0.46102  0.42971  1.0000
  N   N24       1.0  0.71250  0.47166  0.36552  1.0000
  H   H65       1.0  0.66689  0.45536  0.41473  1.0000
  C   C132      1.0  0.87233  0.49636  0.33391  1.0000
  H   H66       1.0  0.88282  0.48249  0.38425  1.0000
  C   C133      1.0  0.98609  0.50627  0.32214  1.0000
  C   C134      1.0  0.92693  0.52115  0.28446  1.0000
  H   H67       1.0  0.91939  0.57250  0.25056  1.0000
  C   C135      1.0  0.54592  0.49095  0.35462  1.0000
  N   N25       1.0  0.89261  0.51780  0.28825  1.0000
  N   N26       1.0  0.60477  0.96864  0.36087  1.0000
  C   C136      1.0  0.97928  0.70834  0.25176  1.0000
  C   C137      1.0  0.97702  0.67270  0.26122  1.0000
  H   H68       1.0  0.46249  0.65910  0.21749  1.0000
  C   C138      1.0  0.00198  0.76234  0.30732  1.0000
  C   C139      1.0  0.00528  0.83363  0.30301  1.0000
  C   C140      1.0  0.98574  0.81588  0.23937  1.0000
  C   C141      1.0  0.98385  0.78007  0.24048  1.0000
  C   C142      1.0  0.96410  0.76171  0.17874  1.0000
  C   C143      1.0  0.96186  0.72606  0.18430  1.0000
  H   H69       1.0  0.45089  0.77413  0.13017  1.0000
  H   H70       1.0  0.44709  0.71325  0.13959  1.0000
  H   H71       1.0  0.47230  0.82910  0.19250  1.0000
  C   C144      1.0  0.50532  0.86932  0.30344  1.0000
  H   H72       1.0  0.49169  0.88180  0.25576  1.0000
  C   C145      1.0  0.78406  0.01278  0.24892  1.0000
  C   C146      1.0  0.81979  0.01430  0.25676  1.0000
  H   H73       1.0  0.83334  0.52917  0.21368  1.0000
  C   C147      1.0  0.73006  0.99077  0.30621  1.0000
  C   C148      1.0  0.65872  0.98918  0.30628  1.0000
  C   C149      1.0  0.67632  0.00905  0.24305  1.0000
  C   C150      1.0  0.71217  0.01006  0.24191  1.0000
  C   C151      1.0  0.73043  0.02998  0.18035  1.0000
  C   C152      1.0  0.76617  0.03132  0.18381  1.0000
  H   H74       1.0  0.71789  0.54401  0.13357  1.0000
  H   H75       1.0  0.77892  0.54629  0.13945  1.0000
  H   H76       1.0  0.66300  0.52321  0.19785  1.0000
  C   C153      1.0  0.62304  0.48951  0.30810  1.0000
  H   H77       1.0  0.61045  0.50371  0.26179  1.0000
  C   C154      1.0  0.95154  0.99640  0.30936  1.0000
  C   C155      1.0  0.93755  0.55449  0.26458  1.0000
  C   C156      1.0  0.97043  0.56553  0.28784  1.0000
  C   C157      1.0  0.99540  0.54114  0.31283  1.0000
  C   C158      1.0  0.94335  0.96154  0.31663  1.0000
  C   C159      1.0  0.52999  0.54990  0.32347  1.0000
  C   C160      1.0  0.51125  0.98132  0.34407  1.0000
  C   C161      1.0  0.50218  0.94637  0.35157  1.0000
  C   C162      1.0  0.52743  0.92175  0.37257  1.0000
  C   C163      1.0  0.56049  0.93249  0.39507  1.0000
  C   C164      1.0  0.57081  0.96590  0.37489  1.0000
  C   C165      1.0  0.96767  0.93744  0.34110  1.0000
  H   H78       1.0  0.57896  0.91434  0.40440  1.0000
  C   C166      1.0  0.55431  0.52572  0.34756  1.0000
  H   H79       1.0  0.95929  0.91326  0.35221  1.0000
  H   H80       1.0  0.91983  0.95252  0.30089  1.0000
  H   H81       1.0  0.57824  0.53435  0.36085  1.0000
  H   H82       1.0  0.53875  0.57374  0.31029  1.0000
  N   N27       1.0  0.97322  0.59989  0.29299  1.0000
  N   N28       1.0  0.52533  0.88776  0.35798  1.0000
  C   C167      1.0  0.99475  0.65576  0.32979  1.0000
  C   C168      1.0  0.01479  0.67560  0.38776  1.0000
  N   N29       1.0  0.01642  0.70974  0.37786  1.0000
  C   C169      1.0  0.99964  0.72669  0.31298  1.0000
  C   C170      1.0  0.02338  0.81434  0.36636  1.0000
  H   H83       1.0  0.02826  0.66478  0.43835  1.0000
  N   N30       1.0  0.02091  0.78001  0.36677  1.0000
  H   H84       1.0  0.03774  0.82570  0.41435  1.0000
  C   C171      1.0  0.99379  0.62032  0.34088  1.0000
  H   H85       1.0  0.00715  0.60985  0.39218  1.0000
  C   C172      1.0  0.83687  0.99561  0.32333  1.0000
  C   C173      1.0  0.81711  0.97515  0.38050  1.0000
  N   N31       1.0  0.78289  0.97431  0.37232  1.0000
  C   C174      1.0  0.76579  0.99216  0.30969  1.0000
  C   C175      1.0  0.67814  0.97003  0.36718  1.0000
  H   H86       1.0  0.82804  0.96102  0.42971  1.0000
  N   N32       1.0  0.71250  0.97166  0.36552  1.0000
  H   H87       1.0  0.66689  0.95536  0.41473  1.0000
  C   C176      1.0  0.87233  0.99636  0.33391  1.0000
  H   H88       1.0  0.88282  0.98249  0.38425  1.0000
