data_image0
_chemical_formula_structural       C13H9C13H9C13H9C13H9C3NOCH3C3NOCH3C3NOCH3CNHCNHCNHC17H12C17H12C17H12C17H12CNHCNHCNHC3NOCH3C3NOCH3C3NOCH3
_chemical_formula_sum              "C150 H108 N12 O6"
_cell_length_a       56.9414
_cell_length_b       56.9246
_cell_length_c       14.9882
_cell_angle_alpha    90
_cell_angle_beta     90
_cell_angle_gamma    120.005

_space_group_name_H-M_alt    "P 1"
_space_group_IT_number       1

loop_
  _space_group_symop_operation_xyz
  'x, y, z'

loop_
  _atom_site_type_symbol
  _atom_site_label
  _atom_site_symmetry_multiplicity
  _atom_site_fract_x
  _atom_site_fract_y
  _atom_site_fract_z
  _atom_site_occupancy
  C   C1        1.0  0.90840  0.83652  0.32537  1.0000
  C   C2        1.0  0.93492  0.89440  0.32223  1.0000
  C   C3        1.0  0.90632  0.87857  0.32080  1.0000
  C   C4        1.0  0.89327  0.85006  0.32297  1.0000
  C   C5        1.0  0.94738  0.92249  0.31836  1.0000
  C   C6        1.0  0.06559  0.02523  0.31896  1.0000
  C   C7        1.0  0.10949  0.02807  0.32157  1.0000
  C   C8        1.0  0.15153  0.07221  0.32616  1.0000
  C   C9        1.0  0.13798  0.04352  0.32381  1.0000
  C   C10       1.0  0.96289  0.04076  0.31897  1.0000
  C   C11       1.0  0.91860  0.03798  0.32468  1.0000
  C   C12       1.0  0.91589  0.07970  0.32604  1.0000
  C   C13       1.0  0.90318  0.05106  0.32646  1.0000
  H   H1        1.0  0.87252  0.83926  0.32105  1.0000
  H   H2        1.0  0.89470  0.88766  0.31844  1.0000
  H   H3        1.0  0.90868  0.01721  0.32425  1.0000
  H   H4        1.0  0.10040  0.00736  0.31916  1.0000
  H   H5        1.0  0.14879  0.03358  0.32181  1.0000
  H   H6        1.0  0.88249  0.03939  0.32905  1.0000
  H   H7        1.0  0.05772  0.01097  0.27197  1.0000
  H   H8        1.0  0.94101  0.93038  0.27143  1.0000
  H   H9        1.0  0.97719  0.04719  0.27213  1.0000
  C   C14       1.0  0.52646  0.36680  0.31994  1.0000
  C   C15       1.0  0.48417  0.31137  0.32177  1.0000
  C   C16       1.0  0.50935  0.31911  0.28064  1.0000
  C   C17       1.0  0.53015  0.34637  0.27991  1.0000
  C   C18       1.0  0.46457  0.28406  0.32370  1.0000
  C   C19       1.0  0.35265  0.17888  0.33847  1.0000
  C   C20       1.0  0.30946  0.17316  0.28980  1.0000
  C   C21       1.0  0.26631  0.13343  0.33550  1.0000
  C   C22       1.0  0.28093  0.15811  0.28777  1.0000
  C   C23       1.0  0.45465  0.17049  0.34649  1.0000
  C   C24       1.0  0.48910  0.16805  0.25940  1.0000
  C   C25       1.0  0.51900  0.15334  0.32721  1.0000
  C   C26       1.0  0.51107  0.16336  0.25343  1.0000
  H   H10       1.0  0.54836  0.35103  0.25177  1.0000
  H   H11       1.0  0.51303  0.30486  0.25249  1.0000
  H   H12       1.0  0.48491  0.17654  0.20586  1.0000
  H   H13       1.0  0.31919  0.19089  0.25430  1.0000
  H   H14       1.0  0.27098  0.16557  0.25094  1.0000
  H   H15       1.0  0.52200  0.16865  0.19539  1.0000
  H   H16       1.0  0.36156  0.18634  0.27989  1.0000
  H   H17       1.0  0.46172  0.27347  0.26778  1.0000
  H   H18       1.0  0.44173  0.16598  0.29593  1.0000
  C   C27       1.0  0.62118  0.15997  0.31978  1.0000
  C   C28       1.0  0.67662  0.17318  0.32168  1.0000
  C   C29       1.0  0.66885  0.19058  0.28038  1.0000
  C   C30       1.0  0.64158  0.18410  0.27965  1.0000
  C   C31       1.0  0.70393  0.18096  0.32369  1.0000
  C   C32       1.0  0.80925  0.17418  0.33819  1.0000
  C   C33       1.0  0.81506  0.13680  0.28899  1.0000
  C   C34       1.0  0.85466  0.13326  0.33532  1.0000
  C   C35       1.0  0.83010  0.12332  0.28701  1.0000
  C   C36       1.0  0.81780  0.28449  0.34673  1.0000
  C   C37       1.0  0.82027  0.32139  0.25950  1.0000
  C   C38       1.0  0.83482  0.36596  0.32740  1.0000
  C   C39       1.0  0.82489  0.34803  0.25355  1.0000
  H   H19       1.0  0.63690  0.19763  0.25146  1.0000
  H   H20       1.0  0.68307  0.20852  0.25223  1.0000
  H   H21       1.0  0.81180  0.30869  0.20597  1.0000
  H   H22       1.0  0.79742  0.12890  0.25306  1.0000
  H   H23       1.0  0.82272  0.10599  0.24976  1.0000
  H   H24       1.0  0.81961  0.35366  0.19549  1.0000
  H   H25       1.0  0.80198  0.17584  0.27949  1.0000
  H   H26       1.0  0.71454  0.18872  0.26782  1.0000
  H   H27       1.0  0.82235  0.27609  0.29626  1.0000
  C   C40       1.0  0.82795  0.46140  0.31982  1.0000
  C   C41       1.0  0.81451  0.50348  0.32172  1.0000
  C   C42       1.0  0.79715  0.47826  0.28069  1.0000
  C   C43       1.0  0.80375  0.45755  0.27992  1.0000
  C   C44       1.0  0.80661  0.52294  0.32377  1.0000
  C   C45       1.0  0.81400  0.63535  0.33853  1.0000
  C   C46       1.0  0.85146  0.67855  0.28977  1.0000
  C   C47       1.0  0.85486  0.72171  0.33520  1.0000
  C   C48       1.0  0.86493  0.70708  0.28759  1.0000
  C   C49       1.0  0.70347  0.53344  0.34643  1.0000
  C   C50       1.0  0.66659  0.49897  0.25934  1.0000
  C   C51       1.0  0.62199  0.46905  0.32718  1.0000
  C   C52       1.0  0.63995  0.47697  0.25342  1.0000
  H   H28       1.0  0.79024  0.43929  0.25193  1.0000
  H   H29       1.0  0.77916  0.47443  0.25273  1.0000
  H   H30       1.0  0.67929  0.50313  0.20588  1.0000
  H   H31       1.0  0.85946  0.66880  0.25435  1.0000
  H   H32       1.0  0.88234  0.71702  0.25076  1.0000
  H   H33       1.0  0.63433  0.46600  0.19547  1.0000
  H   H34       1.0  0.81252  0.62642  0.27997  1.0000
  H   H35       1.0  0.79858  0.52554  0.26810  1.0000
  H   H36       1.0  0.71190  0.54634  0.29583  1.0000
  C   C53       1.0  0.19546  0.10968  0.26824  1.0000
  C   C54       1.0  0.18040  0.08777  0.32749  1.0000
  C   C55       1.0  0.23740  0.11807  0.33293  1.0000
  N   N1        1.0  0.22295  0.12391  0.27360  1.0000
  O   O1        1.0  0.18339  0.11737  0.20469  1.0000
  C   C56       1.0  0.18128  0.10490  0.11939  1.0000
  H   H37       1.0  0.20127  0.11057  0.09244  1.0000
  H   H38       1.0  0.17140  0.11204  0.07328  1.0000
  H   H39       1.0  0.16897  0.08281  0.12341  1.0000
  C   C57       1.0  0.87851  0.08624  0.26781  1.0000
  C   C58       1.0  0.90032  0.09300  0.32735  1.0000
  C   C59       1.0  0.87002  0.11970  0.33276  1.0000
  N   N2        1.0  0.86427  0.09950  0.27317  1.0000
  O   O2        1.0  0.87090  0.06656  0.20401  1.0000
  C   C60       1.0  0.88348  0.07703  0.11893  1.0000
  H   H40       1.0  0.87785  0.09139  0.09205  1.0000
  H   H41       1.0  0.87641  0.06007  0.07258  1.0000
  H   H42       1.0  0.90557  0.08681  0.12326  1.0000
  C   C61       1.0  0.90193  0.79256  0.26762  1.0000
  C   C62       1.0  0.89509  0.80764  0.32679  1.0000
  C   C63       1.0  0.86840  0.75063  0.33247  1.0000
  N   N3        1.0  0.88868  0.76506  0.27310  1.0000
  O   O3        1.0  0.92169  0.80462  0.20406  1.0000
  C   C64       1.0  0.91133  0.80668  0.11872  1.0000
  H   H43       1.0  0.89702  0.78668  0.09185  1.0000
  H   H44       1.0  0.92835  0.81656  0.07260  1.0000
  H   H45       1.0  0.90154  0.81898  0.12264  1.0000
  C   C65       1.0  0.58136  0.15663  0.24286  1.0000
  N   N4        1.0  0.55704  0.15546  0.24671  1.0000
  H   H46       1.0  0.59086  0.16023  0.18238  1.0000
  C   C66       1.0  0.83139  0.42497  0.24296  1.0000
  N   N5        1.0  0.83262  0.40184  0.24685  1.0000
  H   H47       1.0  0.82781  0.43088  0.18246  1.0000
  C   C67       1.0  0.56295  0.40661  0.24295  1.0000
  N   N6        1.0  0.58610  0.43095  0.24676  1.0000
  H   H48       1.0  0.55705  0.39708  0.18250  1.0000
  C   C68       1.0  0.93704  0.85244  0.32621  1.0000
  C   C69       1.0  0.95013  0.88095  0.32441  1.0000
  C   C70       1.0  0.96663  0.93924  0.37594  1.0000
  C   C71       1.0  0.97893  0.96733  0.37244  1.0000
  C   C72       1.0  0.96347  0.98052  0.37315  1.0000
  C   C73       1.0  0.97613  0.00913  0.37267  1.0000
  C   C74       1.0  0.00479  0.02460  0.37341  1.0000
  C   C75       1.0  0.02073  0.01194  0.37273  1.0000
  C   C76       1.0  0.00754  0.98328  0.37321  1.0000
  C   C77       1.0  0.04881  0.02772  0.37641  1.0000
  C   C78       1.0  0.09367  0.04085  0.32298  1.0000
  C   C79       1.0  0.10712  0.06952  0.32517  1.0000
  C   C80       1.0  0.13562  0.08494  0.32696  1.0000
  C   C81       1.0  0.96035  0.02144  0.37630  1.0000
  C   C82       1.0  0.94726  0.05320  0.32293  1.0000
  C   C83       1.0  0.96003  0.08181  0.32191  1.0000
  C   C84       1.0  0.94457  0.09485  0.32408  1.0000
  H   H49       1.0  0.94869  0.84340  0.32913  1.0000
  H   H50       1.0  0.97089  0.89179  0.32430  1.0000
  H   H51       1.0  0.01892  0.97390  0.37490  1.0000
  H   H52       1.0  0.94271  0.96913  0.37478  1.0000
  H   H53       1.0  0.01416  0.04537  0.37523  1.0000
  H   H54       1.0  0.14466  0.10562  0.32988  1.0000
  H   H55       1.0  0.09629  0.07944  0.32502  1.0000
  H   H56       1.0  0.95451  0.11561  0.32241  1.0000
  H   H57       1.0  0.98074  0.09345  0.31982  1.0000
  H   H58       1.0  0.05666  0.04193  0.42356  1.0000
  H   H59       1.0  0.97296  0.93136  0.42305  1.0000
  H   H60       1.0  0.94610  0.01503  0.42329  1.0000
  C   C85       1.0  0.50112  0.35908  0.36008  1.0000
  C   C86       1.0  0.48021  0.33175  0.36082  1.0000
  C   C87       1.0  0.45285  0.27058  0.39936  1.0000
  C   C88       1.0  0.43880  0.24253  0.40238  1.0000
  C   C89       1.0  0.45348  0.22860  0.40537  1.0000
  C   C90       1.0  0.44001  0.19998  0.40835  1.0000
  C   C91       1.0  0.41135  0.18526  0.40995  1.0000
  C   C92       1.0  0.39635  0.19891  0.40750  1.0000
  C   C93       1.0  0.41019  0.22758  0.40410  1.0000
  C   C94       1.0  0.36835  0.18424  0.41120  1.0000
  C   C95       1.0  0.32444  0.16411  0.33987  1.0000
  C   C96       1.0  0.31001  0.13933  0.38682  1.0000
  C   C97       1.0  0.28149  0.12441  0.38517  1.0000
  C   C98       1.0  0.45543  0.18734  0.41081  1.0000
  C   C99       1.0  0.47416  0.16273  0.33938  1.0000
  C   C100      1.0  0.48105  0.15147  0.41194  1.0000
  C   C101      1.0  0.50318  0.14699  0.40597  1.0000
  H   H61       1.0  0.49760  0.37335  0.38862  1.0000
  H   H62       1.0  0.46214  0.32683  0.39057  1.0000
  H   H63       1.0  0.39942  0.23760  0.40292  1.0000
  H   H64       1.0  0.47430  0.23946  0.40446  1.0000
  H   H65       1.0  0.40140  0.16448  0.41321  1.0000
  H   H66       1.0  0.27198  0.10653  0.41974  1.0000
  H   H67       1.0  0.32014  0.13173  0.42203  1.0000
  H   H68       1.0  0.50803  0.13969  0.46112  1.0000
  H   H69       1.0  0.47070  0.14745  0.47098  1.0000
  H   H70       1.0  0.35992  0.17729  0.47058  1.0000
  H   H71       1.0  0.45717  0.28041  0.45728  1.0000
  H   H72       1.0  0.46994  0.19379  0.45697  1.0000
  C   C102      1.0  0.62893  0.14239  0.36004  1.0000
  C   C103      1.0  0.65626  0.14885  0.36084  1.0000
  C   C104      1.0  0.71741  0.18257  0.39921  1.0000
  C   C105      1.0  0.74545  0.19654  0.40223  1.0000
  C   C106      1.0  0.75941  0.22517  0.40513  1.0000
  C   C107      1.0  0.78802  0.24030  0.40806  1.0000
  C   C108      1.0  0.80271  0.22634  0.40968  1.0000
  C   C109      1.0  0.78904  0.19767  0.40735  1.0000
  C   C110      1.0  0.76038  0.18286  0.40401  1.0000
  C   C111      1.0  0.80367  0.18430  0.41106  1.0000
  C   C112      1.0  0.82400  0.16074  0.33960  1.0000
  C   C113      1.0  0.84866  0.17096  0.38719  1.0000
  C   C114      1.0  0.86357  0.15735  0.38552  1.0000
  C   C115      1.0  0.80066  0.26836  0.41041  1.0000
  C   C116      1.0  0.82551  0.31176  0.33961  1.0000
  C   C117      1.0  0.83667  0.32989  0.41226  1.0000
  C   C118      1.0  0.84113  0.35649  0.40625  1.0000
  H   H73       1.0  0.61468  0.12461  0.38871  1.0000
  H   H74       1.0  0.66120  0.13572  0.39071  1.0000
  H   H75       1.0  0.75034  0.16207  0.40287  1.0000
  H   H76       1.0  0.74856  0.23514  0.40418  1.0000
  H   H77       1.0  0.82348  0.23713  0.41291  1.0000
  H   H78       1.0  0.88136  0.16563  0.42058  1.0000
  H   H79       1.0  0.85617  0.18861  0.42282  1.0000
  H   H80       1.0  0.84836  0.36863  0.46145  1.0000
  H   H81       1.0  0.84066  0.32354  0.47133  1.0000
  H   H82       1.0  0.81043  0.18263  0.47056  1.0000
  H   H83       1.0  0.70759  0.17697  0.45711  1.0000
  H   H84       1.0  0.79418  0.27646  0.45637  1.0000
  C   C119      1.0  0.84549  0.48678  0.35986  1.0000
  C   C120      1.0  0.83892  0.50759  0.36062  1.0000
  C   C121      1.0  0.80522  0.53502  0.39908  1.0000
  C   C122      1.0  0.79130  0.54914  0.40228  1.0000
  C   C123      1.0  0.76267  0.53450  0.40526  1.0000
  C   C124      1.0  0.74759  0.54803  0.40836  1.0000
  C   C125      1.0  0.76158  0.57669  0.41004  1.0000
  C   C126      1.0  0.79024  0.59165  0.40762  1.0000
  C   C127      1.0  0.80501  0.57775  0.40416  1.0000
  C   C128      1.0  0.80363  0.61966  0.41129  1.0000
  C   C129      1.0  0.82742  0.66357  0.33985  1.0000
  C   C130      1.0  0.81707  0.67801  0.38668  1.0000
  C   C131      1.0  0.83067  0.70654  0.38490  1.0000
  C   C132      1.0  0.71954  0.53264  0.41073  1.0000
  C   C133      1.0  0.67620  0.51393  0.33931  1.0000
  C   C134      1.0  0.65805  0.50703  0.41185  1.0000
  C   C135      1.0  0.63144  0.48490  0.40587  1.0000
  H   H85       1.0  0.86331  0.49041  0.38835  1.0000
  H   H86       1.0  0.85202  0.52570  0.39033  1.0000
  H   H87       1.0  0.82579  0.58849  0.40294  1.0000
  H   H88       1.0  0.75268  0.51368  0.40426  1.0000
  H   H89       1.0  0.75081  0.58668  0.41333  1.0000
  H   H90       1.0  0.82228  0.71605  0.41935  1.0000
  H   H91       1.0  0.79934  0.66788  0.42187  1.0000
  H   H92       1.0  0.61929  0.48006  0.46101  1.0000
  H   H93       1.0  0.66437  0.51743  0.47083  1.0000
  H   H94       1.0  0.80508  0.62810  0.47064  1.0000
  H   H95       1.0  0.81125  0.53118  0.45681  1.0000
  H   H96       1.0  0.71144  0.51816  0.45701  1.0000
  C   C136      1.0  0.19566  0.08176  0.38819  1.0000
  N   N7        1.0  0.22311  0.09681  0.38914  1.0000
  H   H97       1.0  0.18636  0.06635  0.43343  1.0000
  C   C137      1.0  0.90624  0.11420  0.38833  1.0000
  N   N8        1.0  0.89119  0.12659  0.38926  1.0000
  H   H98       1.0  0.92158  0.12023  0.43380  1.0000
  C   C138      1.0  0.87383  0.79239  0.38753  1.0000
  N   N9        1.0  0.86144  0.76494  0.38860  1.0000
  H   H99       1.0  0.86773  0.80171  0.43271  1.0000
  C   C139      1.0  0.57893  0.14956  0.40165  1.0000
  C   C140      1.0  0.59389  0.15452  0.32149  1.0000
  C   C141      1.0  0.54316  0.15167  0.32419  1.0000
  N   N10       1.0  0.55480  0.14908  0.40004  1.0000
  O   O4        1.0  0.59001  0.14942  0.48268  1.0000
  C   C142      1.0  0.57481  0.12461  0.53205  1.0000
  H   H100      1.0  0.55487  0.12136  0.55097  1.0000
  H   H101      1.0  0.58597  0.12616  0.59297  1.0000
  H   H102      1.0  0.57239  0.10712  0.49417  1.0000
  C   C143      1.0  0.83845  0.42964  0.40176  1.0000
  C   C144      1.0  0.83351  0.43963  0.32155  1.0000
  C   C145      1.0  0.83642  0.39177  0.32437  1.0000
  N   N11       1.0  0.83897  0.40600  0.40019  1.0000
  O   O5        1.0  0.83857  0.44089  0.48271  1.0000
  C   C146      1.0  0.86339  0.45057  0.53205  1.0000
  H   H103      1.0  0.86669  0.43391  0.55105  1.0000
  H   H104      1.0  0.86182  0.46018  0.59292  1.0000
  H   H105      1.0  0.88085  0.46564  0.49411  1.0000
  C   C147      1.0  0.55829  0.40908  0.40172  1.0000
  C   C148      1.0  0.54831  0.39410  0.32160  1.0000
  C   C149      1.0  0.59618  0.44485  0.32421  1.0000
  N   N12       1.0  0.58194  0.43322  0.40007  1.0000
  O   O6        1.0  0.54707  0.39803  0.48276  1.0000
  C   C150      1.0  0.53745  0.41324  0.53203  1.0000
  H   H106      1.0  0.55415  0.43319  0.55091  1.0000
  H   H107      1.0  0.52784  0.40210  0.59295  1.0000
  H   H108      1.0  0.52241  0.41566  0.49408  1.0000
