data_image0
_chemical_formula_structural       NC3H3NC3H3NC3H3CNCHCNCHCNCHNC3H3NC3H3NC3H3NC3H3NC3H3NC3H3CNCHCNCHCNCHCNCHCNCHCNCHNC3H3NC3H3NC3H3NC3H3NC3H3NC3H3C6H3C6H3C6H3C6H3C6H3C6H3C6H3C6H3C6H3C6H3C6H3C6H3C6H3C6H3C6H3C6H3CNCHCNCHCNCHNC3H3NC3H3NC3H3CNCHCNCHCNCHCNCHCNCHCNCHNC3H3NC3H3NC3H3NC3H3NC3H3NC3H3CNCHCNCHCNCHCNCHCNCHCNCH
_chemical_formula_sum              "N48 C216 H144"
_cell_length_a       41.8932
_cell_length_b       41.8932
_cell_length_c       14.8637
_cell_angle_alpha    90
_cell_angle_beta     90
_cell_angle_gamma    120

_space_group_name_H-M_alt    "P 1"
_space_group_IT_number       1

loop_
  _space_group_symop_operation_xyz
  'x, y, z'

loop_
  _atom_site_type_symbol
  _atom_site_label
  _atom_site_symmetry_multiplicity
  _atom_site_fract_x
  _atom_site_fract_y
  _atom_site_fract_z
  _atom_site_occupancy
  N   N1        1.0  0.98170  0.11364  0.29006  1.0000
  C   C1        1.0  0.97833  0.07950  0.28300  1.0000
  C   C2        1.0  0.00263  0.07187  0.33405  1.0000
  C   C3        1.0  0.95121  0.05412  0.21640  1.0000
  H   H1        1.0  0.94145  0.06850  0.17313  1.0000
  H   H2        1.0  0.92732  0.03216  0.25058  1.0000
  H   H3        1.0  0.96373  0.04223  0.17350  1.0000
  N   N2        1.0  0.89735  0.87062  0.28953  1.0000
  C   C4        1.0  0.93137  0.90151  0.28214  1.0000
  C   C5        1.0  0.93892  0.93340  0.33336  1.0000
  C   C6        1.0  0.95662  0.89984  0.21503  1.0000
  H   H4        1.0  0.94202  0.87606  0.17071  1.0000
  H   H5        1.0  0.97828  0.89722  0.24880  1.0000
  H   H6        1.0  0.96892  0.92454  0.17319  1.0000
  N   N3        1.0  0.14011  0.02931  0.28609  1.0000
  C   C7        1.0  0.10928  0.03261  0.27912  1.0000
  C   C8        1.0  0.07724  0.00801  0.32950  1.0000
  C   C9        1.0  0.11120  0.06023  0.21384  1.0000
  H   H7        1.0  0.13510  0.06979  0.16976  1.0000
  H   H8        1.0  0.11376  0.08418  0.24924  1.0000
  H   H9        1.0  0.08660  0.04828  0.17162  1.0000
  C   C10       1.0  0.13115  0.35461  0.35841  1.0000
  N   N4        1.0  0.09922  0.29281  0.30173  1.0000
  C   C11       1.0  0.12829  0.32787  0.29599  1.0000
  H   H10       1.0  0.14578  0.33503  0.24237  1.0000
  C   C12       1.0  0.65677  0.77899  0.35864  1.0000
  N   N5        1.0  0.71853  0.80870  0.30180  1.0000
  C   C13       1.0  0.68351  0.80280  0.29614  1.0000
  H   H11       1.0  0.67639  0.81329  0.24275  1.0000
  C   C14       1.0  0.23227  0.88058  0.35972  1.0000
  N   N6        1.0  0.20208  0.91239  0.30429  1.0000
  C   C15       1.0  0.20807  0.88333  0.29816  1.0000
  H   H12       1.0  0.19725  0.86560  0.24512  1.0000
  N   N7        1.0  0.34413  0.10253  0.26635  1.0000
  C   C16       1.0  0.30875  0.07455  0.25628  1.0000
  C   C17       1.0  0.28209  0.07108  0.32086  1.0000
  C   C18       1.0  0.30041  0.04987  0.17761  1.0000
  H   H13       1.0  0.32412  0.05993  0.13276  1.0000
  H   H14       1.0  0.27755  0.04863  0.13961  1.0000
  H   H15       1.0  0.29310  0.02215  0.19883  1.0000
  N   N8        1.0  0.76719  0.66657  0.26377  1.0000
  C   C19       1.0  0.77435  0.70188  0.25352  1.0000
  C   C20       1.0  0.79701  0.72854  0.31877  1.0000
  C   C21       1.0  0.75852  0.71018  0.17378  1.0000
  H   H16       1.0  0.74530  0.68649  0.12868  1.0000
  H   H17       1.0  0.78036  0.73315  0.13649  1.0000
  H   H18       1.0  0.73787  0.71733  0.19372  1.0000
  N   N9        1.0  0.90844  0.24420  0.26382  1.0000
  C   C22       1.0  0.93663  0.23709  0.25359  1.0000
  C   C23       1.0  0.94063  0.21440  0.31872  1.0000
  C   C24       1.0  0.96079  0.25300  0.17392  1.0000
  H   H19       1.0  0.95032  0.26622  0.12884  1.0000
  H   H20       1.0  0.96197  0.23120  0.13655  1.0000
  H   H21       1.0  0.98857  0.27367  0.19396  1.0000
  N   N10       1.0  0.28051  0.48885  0.27696  1.0000
  C   C25       1.0  0.31794  0.50833  0.27231  1.0000
  C   C26       1.0  0.33775  0.49755  0.33042  1.0000
  C   C27       1.0  0.33491  0.53807  0.20434  1.0000
  H   H22       1.0  0.31402  0.53843  0.16117  1.0000
  H   H23       1.0  0.35374  0.53389  0.16179  1.0000
  H   H24       1.0  0.34998  0.56481  0.23721  1.0000
  N   N11       1.0  0.52252  0.79404  0.27696  1.0000
  C   C28       1.0  0.50298  0.81193  0.27235  1.0000
  C   C29       1.0  0.51365  0.84245  0.33067  1.0000
  C   C30       1.0  0.47329  0.79919  0.20427  1.0000
  H   H25       1.0  0.47297  0.77797  0.16106  1.0000
  H   H26       1.0  0.47749  0.82222  0.16178  1.0000
  H   H27       1.0  0.44652  0.78749  0.23704  1.0000
  N   N12       1.0  0.21730  0.73132  0.27668  1.0000
  C   C31       1.0  0.19949  0.69389  0.27217  1.0000
  C   C32       1.0  0.16896  0.67401  0.33044  1.0000
  C   C33       1.0  0.21235  0.67697  0.20430  1.0000
  H   H28       1.0  0.23354  0.69788  0.16104  1.0000
  H   H29       1.0  0.18937  0.65804  0.16184  1.0000
  H   H30       1.0  0.22414  0.66202  0.23727  1.0000
  C   C34       1.0  0.46081  0.25734  0.36029  1.0000
  N   N13       1.0  0.47004  0.31411  0.30215  1.0000
  C   C35       1.0  0.45043  0.27679  0.30116  1.0000
  H   H31       1.0  0.42987  0.26358  0.25500  1.0000
  C   C36       1.0  0.80553  0.55027  0.36023  1.0000
  N   N14       1.0  0.85322  0.54121  0.30231  1.0000
  C   C37       1.0  0.83538  0.56070  0.30115  1.0000
  H   H32       1.0  0.84271  0.58124  0.25495  1.0000
  C   C38       1.0  0.75372  0.20583  0.36013  1.0000
  N   N15       1.0  0.69695  0.15827  0.30207  1.0000
  C   C39       1.0  0.73428  0.17597  0.30112  1.0000
  H   H33       1.0  0.74747  0.16867  0.25478  1.0000
  C   C40       1.0  0.14751  0.54550  0.35558  1.0000
  N   N16       1.0  0.17726  0.51437  0.29712  1.0000
  C   C41       1.0  0.17242  0.54403  0.29463  1.0000
  H   H34       1.0  0.18543  0.56370  0.24631  1.0000
  C   C42       1.0  0.46630  0.60437  0.35546  1.0000
  N   N17       1.0  0.49721  0.66530  0.29726  1.0000
  C   C43       1.0  0.46765  0.63074  0.29461  1.0000
  H   H35       1.0  0.44795  0.62406  0.24637  1.0000
  C   C44       1.0  0.40681  0.86425  0.35550  1.0000
  N   N18       1.0  0.34596  0.83459  0.29691  1.0000
  C   C45       1.0  0.38045  0.83940  0.29442  1.0000
  H   H36       1.0  0.38712  0.82643  0.24602  1.0000
  N   N19       1.0  0.51871  0.12878  0.27101  1.0000
  C   C46       1.0  0.48909  0.13387  0.26852  1.0000
  C   C47       1.0  0.48692  0.15703  0.33519  1.0000
  C   C48       1.0  0.46250  0.11611  0.19402  1.0000
  H   H37       1.0  0.47260  0.10377  0.14525  1.0000
  H   H38       1.0  0.45811  0.13647  0.15889  1.0000
  H   H39       1.0  0.43630  0.09428  0.21996  1.0000
  N   N20       1.0  0.61892  0.49211  0.27087  1.0000
  C   C49       1.0  0.65366  0.52168  0.26822  1.0000
  C   C50       1.0  0.67899  0.52386  0.33488  1.0000
  C   C51       1.0  0.66245  0.54821  0.19357  1.0000
  H   H40       1.0  0.64004  0.53799  0.14468  1.0000
  H   H41       1.0  0.68725  0.55267  0.15862  1.0000
  H   H42       1.0  0.66668  0.57438  0.21932  1.0000
  N   N21       1.0  0.88247  0.39245  0.27102  1.0000
  C   C52       1.0  0.87724  0.35769  0.26830  1.0000
  C   C53       1.0  0.85396  0.33233  0.33476  1.0000
  C   C54       1.0  0.89492  0.34886  0.19359  1.0000
  H   H43       1.0  0.90717  0.37130  0.14476  1.0000
  H   H44       1.0  0.87455  0.32410  0.15858  1.0000
  H   H45       1.0  0.91683  0.34456  0.21929  1.0000
  N   N22       1.0  0.98703  0.52467  0.25552  1.0000
  C   C55       1.0  0.02419  0.54219  0.24748  1.0000
  C   C56       1.0  0.04513  0.56717  0.31687  1.0000
  C   C57       1.0  0.04006  0.53382  0.16795  1.0000
  H   H46       1.0  0.01853  0.51582  0.12089  1.0000
  H   H47       1.0  0.05511  0.52003  0.18820  1.0000
  H   H48       1.0  0.05879  0.55933  0.13292  1.0000
  N   N23       1.0  0.48683  0.46454  0.25532  1.0000
  C   C58       1.0  0.46937  0.48424  0.24729  1.0000
  C   C59       1.0  0.44442  0.48025  0.31671  1.0000
  C   C60       1.0  0.47783  0.50852  0.16783  1.0000
  H   H49       1.0  0.49579  0.50494  0.12075  1.0000
  H   H50       1.0  0.49169  0.53736  0.18816  1.0000
  H   H51       1.0  0.45235  0.50184  0.13279  1.0000
  N   N24       1.0  0.54670  0.02449  0.25537  1.0000
  C   C61       1.0  0.52702  0.98733  0.24740  1.0000
  C   C62       1.0  0.53098  0.96641  0.31699  1.0000
  C   C63       1.0  0.50280  0.97146  0.16786  1.0000
  H   H52       1.0  0.50639  0.99298  0.12070  1.0000
  H   H53       1.0  0.47395  0.95648  0.18809  1.0000
  H   H54       1.0  0.50953  0.95267  0.13297  1.0000
  C   C64       1.0  0.00408  0.03790  0.33307  1.0000
  C   C65       1.0  0.03850  0.03882  0.33262  1.0000
  C   C66       1.0  0.04186  0.00668  0.33032  1.0000
  C   C67       1.0  0.00836  0.97229  0.33246  1.0000
  C   C68       1.0  0.97284  0.96889  0.33272  1.0000
  C   C69       1.0  0.97194  0.00239  0.33506  1.0000
  H   H55       1.0  0.01000  0.94884  0.33585  1.0000
  H   H56       1.0  0.94688  0.00076  0.34017  1.0000
  H   H57       1.0  0.06196  0.06391  0.33602  1.0000
  C   C70       1.0  0.04062  0.24552  0.35764  1.0000
  C   C71       1.0  0.00699  0.24487  0.34347  1.0000
  C   C72       1.0  0.97337  0.21195  0.32869  1.0000
  C   C73       1.0  0.97385  0.17832  0.33030  1.0000
  C   C74       1.0  0.00697  0.17705  0.34286  1.0000
  C   C75       1.0  0.04015  0.21142  0.35513  1.0000
  H   H58       1.0  0.94941  0.15426  0.32170  1.0000
  H   H59       1.0  0.06465  0.21185  0.36249  1.0000
  H   H60       1.0  0.00700  0.26935  0.34383  1.0000
  C   C76       1.0  0.76571  0.79724  0.35782  1.0000
  C   C77       1.0  0.76644  0.76430  0.34364  1.0000
  C   C78       1.0  0.79940  0.76370  0.32875  1.0000
  C   C79       1.0  0.83298  0.79787  0.33038  1.0000
  C   C80       1.0  0.83414  0.83220  0.34292  1.0000
  C   C81       1.0  0.79973  0.83092  0.35517  1.0000
  H   H61       1.0  0.85709  0.79758  0.32172  1.0000
  H   H62       1.0  0.79922  0.85495  0.36239  1.0000
  H   H63       1.0  0.74199  0.73980  0.34397  1.0000
  C   C82       1.0  0.21359  0.97109  0.35998  1.0000
  C   C83       1.0  0.24650  0.00499  0.34815  1.0000
  C   C84       1.0  0.24695  0.03835  0.33121  1.0000
  C   C85       1.0  0.21265  0.03746  0.32908  1.0000
  C   C86       1.0  0.17832  0.00410  0.33984  1.0000
  C   C87       1.0  0.17981  0.97113  0.35339  1.0000
  H   H64       1.0  0.21284  0.06173  0.31897  1.0000
  H   H65       1.0  0.15582  0.94644  0.35887  1.0000
  H   H66       1.0  0.27110  0.00530  0.35008  1.0000
  C   C88       1.0  0.17061  0.45784  0.35229  1.0000
  C   C89       1.0  0.20838  0.46947  0.34224  1.0000
  C   C90       1.0  0.22161  0.44444  0.33769  1.0000
  C   C91       1.0  0.19577  0.40621  0.34317  1.0000
  C   C92       1.0  0.15749  0.39308  0.35238  1.0000
  C   C93       1.0  0.14560  0.41939  0.35672  1.0000
  H   H67       1.0  0.20497  0.38772  0.34054  1.0000
  H   H68       1.0  0.11795  0.41021  0.35904  1.0000
  H   H69       1.0  0.22703  0.49722  0.34158  1.0000
  C   C94       1.0  0.55362  0.71523  0.35252  1.0000
  C   C95       1.0  0.54194  0.74132  0.34249  1.0000
  C   C96       1.0  0.56694  0.77959  0.33785  1.0000
  C   C97       1.0  0.60517  0.79202  0.34335  1.0000
  C   C98       1.0  0.61833  0.76689  0.35258  1.0000
  C   C99       1.0  0.59207  0.72869  0.35687  1.0000
  H   H70       1.0  0.62365  0.81972  0.34071  1.0000
  H   H71       1.0  0.60128  0.71025  0.35911  1.0000
  H   H72       1.0  0.51418  0.73219  0.34175  1.0000
  C   C100      1.0  0.29607  0.84119  0.35221  1.0000
  C   C101      1.0  0.26996  0.80344  0.34191  1.0000
  C   C102      1.0  0.23168  0.79018  0.33753  1.0000
  C   C103      1.0  0.21928  0.81599  0.34353  1.0000
  C   C104      1.0  0.24440  0.85426  0.35310  1.0000
  C   C105      1.0  0.28261  0.86617  0.35715  1.0000
  H   H73       1.0  0.19157  0.80677  0.34111  1.0000
  H   H74       1.0  0.30106  0.89381  0.35971  1.0000
  H   H75       1.0  0.27907  0.78480  0.34089  1.0000
  C   C106      1.0  0.45944  0.16770  0.33975  1.0000
  C   C107      1.0  0.47115  0.20543  0.35075  1.0000
  C   C108      1.0  0.44610  0.21863  0.35497  1.0000
  C   C109      1.0  0.40788  0.19287  0.34889  1.0000
  C   C110      1.0  0.39469  0.15460  0.33925  1.0000
  C   C111      1.0  0.42099  0.14270  0.33468  1.0000
  H   H76       1.0  0.38945  0.20216  0.35102  1.0000
  H   H77       1.0  0.41183  0.11507  0.33126  1.0000
  H   H78       1.0  0.49890  0.22407  0.35177  1.0000
  C   C112      1.0  0.71712  0.55138  0.33941  1.0000
  C   C113      1.0  0.74322  0.53978  0.35080  1.0000
  C   C114      1.0  0.78146  0.56490  0.35473  1.0000
  C   C115      1.0  0.79382  0.60309  0.34792  1.0000
  C   C116      1.0  0.76867  0.61617  0.33788  1.0000
  C   C117      1.0  0.73049  0.58980  0.33365  1.0000
  H   H79       1.0  0.82153  0.62159  0.34985  1.0000
  H   H80       1.0  0.71198  0.59890  0.33016  1.0000
  H   H81       1.0  0.73416  0.51204  0.35235  1.0000
  C   C118      1.0  0.84331  0.29419  0.33931  1.0000
  C   C119      1.0  0.80561  0.26812  0.35070  1.0000
  C   C120      1.0  0.79245  0.22987  0.35469  1.0000
  C   C121      1.0  0.81827  0.21749  0.34791  1.0000
  C   C122      1.0  0.85651  0.24263  0.33787  1.0000
  C   C123      1.0  0.86834  0.28081  0.33363  1.0000
  H   H82       1.0  0.80905  0.18978  0.34982  1.0000
  H   H83       1.0  0.89596  0.29931  0.33019  1.0000
  H   H84       1.0  0.78695  0.27721  0.35220  1.0000
  C   C124      1.0  0.08326  0.58193  0.32644  1.0000
  C   C125      1.0  0.09731  0.55809  0.34121  1.0000
  C   C126      1.0  0.13552  0.57165  0.34809  1.0000
  C   C127      1.0  0.15967  0.61026  0.34264  1.0000
  C   C128      1.0  0.14600  0.63501  0.33210  1.0000
  C   C129      1.0  0.10751  0.62021  0.32460  1.0000
  H   H85       1.0  0.18733  0.62043  0.35104  1.0000
  H   H86       1.0  0.09693  0.63738  0.31477  1.0000
  H   H87       1.0  0.07932  0.53022  0.34438  1.0000
  C   C130      1.0  0.42973  0.50369  0.32630  1.0000
  C   C131      1.0  0.45363  0.54156  0.34110  1.0000
  C   C132      1.0  0.44013  0.56625  0.34802  1.0000
  C   C133      1.0  0.40153  0.55187  0.34264  1.0000
  C   C134      1.0  0.37674  0.51349  0.33198  1.0000
  C   C135      1.0  0.39146  0.48972  0.32441  1.0000
  H   H88       1.0  0.39142  0.56940  0.35106  1.0000
  H   H89       1.0  0.37424  0.46199  0.31461  1.0000
  H   H90       1.0  0.48150  0.55140  0.34428  1.0000
  C   C136      1.0  0.50753  0.92829  0.32660  1.0000
  C   C137      1.0  0.46965  0.91433  0.34132  1.0000
  C   C138      1.0  0.44493  0.87614  0.34818  1.0000
  C   C139      1.0  0.45930  0.85191  0.34272  1.0000
  C   C140      1.0  0.49769  0.86549  0.33219  1.0000
  C   C141      1.0  0.52148  0.90397  0.32471  1.0000
  H   H91       1.0  0.44175  0.82426  0.35101  1.0000
  H   H92       1.0  0.54921  0.91448  0.31496  1.0000
  H   H93       1.0  0.45984  0.93238  0.34446  1.0000
  C   C142      1.0  0.58500  0.08081  0.33119  1.0000
  C   C143      1.0  0.56096  0.09506  0.32479  1.0000
  C   C144      1.0  0.57377  0.13309  0.33342  1.0000
  C   C145      1.0  0.61210  0.15714  0.34640  1.0000
  C   C146      1.0  0.63716  0.14364  0.35184  1.0000
  C   C147      1.0  0.62277  0.10514  0.34576  1.0000
  H   H94       1.0  0.62194  0.18491  0.34701  1.0000
  H   H95       1.0  0.64014  0.09453  0.34960  1.0000
  H   H96       1.0  0.53325  0.07704  0.31735  1.0000
  C   C148      1.0  0.50469  0.42611  0.33116  1.0000
  C   C149      1.0  0.54300  0.45008  0.32483  1.0000
  C   C150      1.0  0.56816  0.43720  0.33349  1.0000
  C   C151      1.0  0.55380  0.39886  0.34640  1.0000
  C   C152      1.0  0.51524  0.37387  0.35187  1.0000
  C   C153      1.0  0.49118  0.38832  0.34571  1.0000
  H   H97       1.0  0.57170  0.38897  0.34696  1.0000
  H   H98       1.0  0.46320  0.37100  0.34951  1.0000
  H   H99       1.0  0.55275  0.47781  0.31740  1.0000
  C   C154      1.0  0.93070  0.50671  0.33137  1.0000
  C   C155      1.0  0.91640  0.46841  0.32498  1.0000
  C   C156      1.0  0.87835  0.44323  0.33365  1.0000
  C   C157      1.0  0.85435  0.45756  0.34662  1.0000
  C   C158      1.0  0.86791  0.49612  0.35216  1.0000
  C   C159      1.0  0.90642  0.52020  0.34594  1.0000
  H   H100      1.0  0.82657  0.43966  0.34717  1.0000
  H   H101      1.0  0.91704  0.54817  0.34982  1.0000
  H   H102      1.0  0.93438  0.45866  0.31750  1.0000
  C   C160      1.0  0.00650  0.14220  0.34174  1.0000
  N   N25       1.0  0.02788  0.10068  0.38477  1.0000
  C   C161      1.0  0.03090  0.13458  0.39066  1.0000
  H   H103      1.0  0.05048  0.15378  0.43217  1.0000
  C   C162      1.0  0.86885  0.86667  0.34167  1.0000
  N   N26       1.0  0.91015  0.92962  0.38460  1.0000
  C   C163      1.0  0.87635  0.89862  0.39073  1.0000
  H   H104      1.0  0.85717  0.89885  0.43262  1.0000
  C   C164      1.0  0.14375  0.00417  0.33670  1.0000
  N   N27       1.0  0.08073  0.98242  0.37888  1.0000
  C   C165      1.0  0.11153  0.97929  0.38427  1.0000
  H   H105      1.0  0.11105  0.95953  0.42527  1.0000
  N   N28       1.0  0.10551  0.34235  0.42506  1.0000
  C   C166      1.0  0.07733  0.30702  0.43435  1.0000
  C   C167      1.0  0.07335  0.28066  0.36824  1.0000
  C   C168      1.0  0.05312  0.29836  0.51407  1.0000
  H   H106      1.0  0.06359  0.32181  0.55993  1.0000
  H   H107      1.0  0.05188  0.27517  0.55052  1.0000
  H   H108      1.0  0.02536  0.29140  0.49420  1.0000
  N   N29       1.0  0.66896  0.76549  0.42517  1.0000
  C   C169      1.0  0.70424  0.77248  0.43433  1.0000
  C   C170      1.0  0.73057  0.79480  0.36811  1.0000
  C   C171      1.0  0.71284  0.75684  0.51398  1.0000
  H   H109      1.0  0.68941  0.74396  0.55992  1.0000
  H   H110      1.0  0.73611  0.77873  0.55037  1.0000
  H   H111      1.0  0.71966  0.73596  0.49401  1.0000
  N   N30       1.0  0.24598  0.90633  0.42608  1.0000
  C   C172      1.0  0.23892  0.93456  0.43576  1.0000
  C   C173      1.0  0.21631  0.93849  0.37019  1.0000
  C   C174      1.0  0.25503  0.95888  0.51512  1.0000
  H   H112      1.0  0.26638  0.94733  0.56267  1.0000
  H   H113      1.0  0.23376  0.96197  0.54985  1.0000
  H   H114      1.0  0.27720  0.98595  0.49501  1.0000
  C   C175      1.0  0.35619  0.12839  0.33246  1.0000
  N   N31       1.0  0.29402  0.09713  0.38692  1.0000
  C   C176      1.0  0.32916  0.12600  0.39330  1.0000
  H   H115      1.0  0.33613  0.14369  0.44647  1.0000
  C   C177      1.0  0.78080  0.65461  0.33060  1.0000
  N   N32       1.0  0.81098  0.71672  0.38540  1.0000
  C   C178      1.0  0.80493  0.68166  0.39210  1.0000
  H   H116      1.0  0.81553  0.67477  0.44564  1.0000
  C   C179      1.0  0.88285  0.23053  0.33058  1.0000
  N   N33       1.0  0.91482  0.20038  0.38531  1.0000
  C   C180      1.0  0.88581  0.20642  0.39206  1.0000
  H   H117      1.0  0.86827  0.19571  0.44550  1.0000
  C   C181      1.0  0.26034  0.45922  0.33112  1.0000
  N   N34       1.0  0.31759  0.46751  0.38371  1.0000
  C   C182      1.0  0.28023  0.44797  0.38630  1.0000
  H   H118      1.0  0.26733  0.42672  0.43085  1.0000
  C   C183      1.0  0.55213  0.80350  0.33121  1.0000
  N   N35       1.0  0.54366  0.85232  0.38408  1.0000
  C   C184      1.0  0.56325  0.83456  0.38662  1.0000
  H   H119      1.0  0.58446  0.84289  0.43129  1.0000
  C   C185      1.0  0.20776  0.75144  0.33076  1.0000
  N   N36       1.0  0.15900  0.69413  0.38365  1.0000
  C   C186      1.0  0.17666  0.73149  0.38602  1.0000
  H   H120      1.0  0.16831  0.74434  0.43074  1.0000
  N   N37       1.0  0.48983  0.27790  0.41579  1.0000
  C   C187      1.0  0.50931  0.31539  0.41881  1.0000
  C   C188      1.0  0.49926  0.33483  0.35735  1.0000
  C   C189      1.0  0.53822  0.33276  0.48859  1.0000
  H   H121      1.0  0.53745  0.31222  0.53506  1.0000
  H   H122      1.0  0.53412  0.35253  0.52741  1.0000
  H   H123      1.0  0.56541  0.34681  0.45760  1.0000
  N   N38       1.0  0.79717  0.52132  0.41594  1.0000
  C   C190      1.0  0.81532  0.50197  0.41914  1.0000
  C   C191      1.0  0.84479  0.51204  0.35764  1.0000
  C   C192      1.0  0.80387  0.47310  0.48901  1.0000
  H   H124      1.0  0.78408  0.47384  0.53548  1.0000
  H   H125      1.0  0.82777  0.47730  0.52783  1.0000
  H   H126      1.0  0.79079  0.44590  0.45812  1.0000
  N   N39       1.0  0.73316  0.21425  0.41578  1.0000
  C   C193      1.0  0.69566  0.19619  0.41887  1.0000
  C   C194      1.0  0.67621  0.16676  0.35726  1.0000
  C   C195      1.0  0.67826  0.20767  0.48872  1.0000
  H   H127      1.0  0.69879  0.22746  0.53516  1.0000
  H   H128      1.0  0.65854  0.18378  0.52756  1.0000
  H   H129      1.0  0.66414  0.22075  0.45777  1.0000
  N   N40       1.0  0.13023  0.51676  0.41383  1.0000
  C   C196      1.0  0.13543  0.48721  0.41838  1.0000
  C   C197      1.0  0.15995  0.48538  0.35520  1.0000
  C   C198      1.0  0.11630  0.46032  0.49157  1.0000
  H   H130      1.0  0.10337  0.47040  0.53868  1.0000
  H   H131      1.0  0.13591  0.45553  0.52904  1.0000
  H   H132      1.0  0.09473  0.43435  0.46395  1.0000
  N   N41       1.0  0.49500  0.61588  0.41384  1.0000
  C   C199      1.0  0.52445  0.65068  0.41852  1.0000
  C   C200      1.0  0.52617  0.67701  0.35541  1.0000
  C   C201      1.0  0.55133  0.65851  0.49175  1.0000
  H   H133      1.0  0.54130  0.63550  0.53885  1.0000
  H   H134      1.0  0.55605  0.68288  0.52922  1.0000
  H   H135      1.0  0.57734  0.66297  0.46419  1.0000
  N   N42       1.0  0.39536  0.88148  0.41390  1.0000
  C   C202      1.0  0.36061  0.87630  0.41844  1.0000
  C   C203      1.0  0.33428  0.85185  0.35513  1.0000
  C   C204      1.0  0.35286  0.89539  0.49174  1.0000
  H   H136      1.0  0.37583  0.90822  0.53897  1.0000
  H   H137      1.0  0.32841  0.87577  0.52906  1.0000
  H   H138      1.0  0.34855  0.91703  0.46425  1.0000
  C   C205      1.0  0.54719  0.14477  0.33047  1.0000
  N   N43       1.0  0.51570  0.17335  0.39417  1.0000
  C   C206      1.0  0.54539  0.16849  0.39472  1.0000
  H   H139      1.0  0.56490  0.18070  0.44370  1.0000
  C   C207      1.0  0.60643  0.46368  0.33044  1.0000
  N   N44       1.0  0.66653  0.49511  0.39395  1.0000
  C   C208      1.0  0.63197  0.46544  0.39457  1.0000
  H   H140      1.0  0.62464  0.44598  0.44372  1.0000
  C   C209      1.0  0.86655  0.40496  0.33060  1.0000
  N   N45       1.0  0.83773  0.34482  0.39393  1.0000
  C   C210      1.0  0.84275  0.37943  0.39471  1.0000
  H   H141      1.0  0.83059  0.38677  0.44378  1.0000
  C   C211      1.0  0.96892  0.53046  0.32357  1.0000
  N   N46       1.0  0.02718  0.57335  0.38484  1.0000
  C   C212      1.0  0.98999  0.55676  0.38960  1.0000
  H   H142      1.0  0.97804  0.56128  0.44436  1.0000
  C   C213      1.0  0.48096  0.44060  0.32333  1.0000
  N   N47       1.0  0.43817  0.45607  0.38458  1.0000
  C   C214      1.0  0.45458  0.43530  0.38921  1.0000
  H   H143      1.0  0.45018  0.41898  0.44418  1.0000
  C   C215      1.0  0.57059  0.04260  0.32344  1.0000
  N   N48       1.0  0.55507  0.98435  0.38498  1.0000
  C   C216      1.0  0.57578  0.02154  0.38960  1.0000
  H   H144      1.0  0.59215  0.03352  0.44447  1.0000
