data_image0
_chemical_formula_structural       C17H12C17H12C2H2C2H2C2H2C13H9C13H9C4HNH2C4HNH2C4HNH2
_chemical_formula_sum              "C78 H57 N3"
_cell_length_a       37.4079
_cell_length_b       37.3827
_cell_length_c       14.847
_cell_angle_alpha    90
_cell_angle_beta     90
_cell_angle_gamma    120.036

_space_group_name_H-M_alt    "P 1"
_space_group_IT_number       1

loop_
  _space_group_symop_operation_xyz
  'x, y, z'

loop_
  _atom_site_type_symbol
  _atom_site_label
  _atom_site_symmetry_multiplicity
  _atom_site_fract_x
  _atom_site_fract_y
  _atom_site_fract_z
  _atom_site_occupancy
  C   C1        1.0  0.47765  0.89243  0.31965  1.0000
  C   C2        1.0  0.45462  0.84893  0.32311  1.0000
  C   C3        1.0  0.39019  0.75808  0.29860  1.0000
  C   C4        1.0  0.36572  0.71536  0.30603  1.0000
  C   C5        1.0  0.32210  0.69587  0.30499  1.0000
  C   C6        1.0  0.29715  0.65231  0.30488  1.0000
  C   C7        1.0  0.31661  0.62815  0.30420  1.0000
  C   C8        1.0  0.36013  0.64677  0.30523  1.0000
  C   C9        1.0  0.38430  0.69042  0.30531  1.0000
  C   C10       1.0  0.37838  0.62235  0.29734  1.0000
  C   C11       1.0  0.42582  0.59985  0.34826  1.0000
  C   C12       1.0  0.40477  0.55788  0.32126  1.0000
  C   C13       1.0  0.42525  0.53490  0.31756  1.0000
  C   C14       1.0  0.25450  0.63410  0.29658  1.0000
  C   C15       1.0  0.18433  0.58626  0.34600  1.0000
  C   C16       1.0  0.15985  0.54400  0.36907  1.0000
  C   C17       1.0  0.11644  0.52394  0.36620  1.0000
  H   H1        1.0  0.50814  0.90628  0.30184  1.0000
  H   H2        1.0  0.46916  0.83271  0.30755  1.0000
  H   H3        1.0  0.41586  0.70423  0.30254  1.0000
  H   H4        1.0  0.30834  0.71366  0.30203  1.0000
  H   H5        1.0  0.29884  0.59658  0.30069  1.0000
  H   H6        1.0  0.40860  0.50438  0.29984  1.0000
  H   H7        1.0  0.37400  0.54329  0.30576  1.0000
  H   H8        1.0  0.09993  0.49334  0.38344  1.0000
  H   H9        1.0  0.17346  0.52737  0.38891  1.0000
  H   H10       1.0  0.37006  0.60338  0.24473  1.0000
  H   H11       1.0  0.40929  0.76882  0.24622  1.0000
  H   H12       1.0  0.24403  0.64301  0.24467  1.0000
  C   C18       1.0  0.53739  0.11810  0.34635  1.0000
  C   C19       1.0  0.56154  0.16153  0.34801  1.0000
  C   C20       1.0  0.62495  0.25162  0.30331  1.0000
  C   C21       1.0  0.64974  0.29448  0.30970  1.0000
  C   C22       1.0  0.69339  0.31416  0.30936  1.0000
  C   C23       1.0  0.71845  0.35774  0.30964  1.0000
  C   C24       1.0  0.69878  0.38173  0.30857  1.0000
  C   C25       1.0  0.65524  0.36318  0.30906  1.0000
  C   C26       1.0  0.63122  0.31950  0.30874  1.0000
  C   C27       1.0  0.63721  0.38795  0.30225  1.0000
  C   C28       1.0  0.58687  0.40769  0.34475  1.0000
  C   C29       1.0  0.61052  0.45138  0.34652  1.0000
  C   C30       1.0  0.59123  0.47548  0.34474  1.0000
  C   C31       1.0  0.76129  0.37577  0.30335  1.0000
  C   C32       1.0  0.83138  0.42681  0.34395  1.0000
  C   C33       1.0  0.85616  0.47015  0.33413  1.0000
  C   C34       1.0  0.89956  0.48940  0.33244  1.0000
  H   H13       1.0  0.50592  0.10461  0.34886  1.0000
  H   H14       1.0  0.54690  0.17840  0.35255  1.0000
  H   H15       1.0  0.59967  0.30565  0.30571  1.0000
  H   H16       1.0  0.70721  0.29642  0.30677  1.0000
  H   H17       1.0  0.71648  0.41330  0.30532  1.0000
  H   H18       1.0  0.60922  0.50699  0.34723  1.0000
  H   H19       1.0  0.64204  0.46607  0.35116  1.0000
  H   H20       1.0  0.91655  0.52090  0.32702  1.0000
  H   H21       1.0  0.84282  0.48822  0.32922  1.0000
  H   H22       1.0  0.64951  0.41099  0.25785  1.0000
  H   H23       1.0  0.60188  0.24081  0.25903  1.0000
  H   H24       1.0  0.77207  0.36279  0.26089  1.0000
  C   C35       1.0  0.50380  0.47953  0.27099  1.0000
  C   C36       1.0  0.48387  0.50297  0.26970  1.0000
  H   H25       1.0  0.50077  0.46164  0.21607  1.0000
  H   H26       1.0  0.46713  0.50150  0.21386  1.0000
  C   C37       1.0  0.53318  0.02644  0.27291  1.0000
  C   C38       1.0  0.50969  0.98304  0.27167  1.0000
  H   H27       1.0  0.55107  0.04128  0.21798  1.0000
  H   H28       1.0  0.51113  0.96774  0.21588  1.0000
  C   C39       1.0  0.98619  0.50827  0.26839  1.0000
  C   C40       1.0  0.02955  0.52798  0.26664  1.0000
  H   H29       1.0  0.97125  0.51024  0.21245  1.0000
  H   H30       1.0  0.04477  0.54358  0.20966  1.0000
  C   C41       1.0  0.45983  0.91669  0.34414  1.0000
  C   C42       1.0  0.41266  0.82801  0.34998  1.0000
  C   C43       1.0  0.39478  0.85225  0.37405  1.0000
  C   C44       1.0  0.41790  0.89571  0.37116  1.0000
  C   C45       1.0  0.38925  0.78502  0.35739  1.0000
  C   C46       1.0  0.40622  0.62318  0.35606  1.0000
  C   C47       1.0  0.46795  0.61780  0.37224  1.0000
  C   C48       1.0  0.46734  0.55277  0.34211  1.0000
  C   C49       1.0  0.48829  0.59472  0.36920  1.0000
  C   C50       1.0  0.22726  0.60564  0.35406  1.0000
  C   C51       1.0  0.16371  0.60770  0.31992  1.0000
  C   C52       1.0  0.09582  0.54531  0.33988  1.0000
  C   C53       1.0  0.12026  0.58749  0.31613  1.0000
  H   H31       1.0  0.40362  0.91196  0.38872  1.0000
  H   H32       1.0  0.36458  0.83843  0.39434  1.0000
  H   H33       1.0  0.18010  0.63857  0.30520  1.0000
  H   H34       1.0  0.48433  0.64800  0.39264  1.0000
  H   H35       1.0  0.51883  0.60904  0.38677  1.0000
  H   H36       1.0  0.10656  0.60434  0.29895  1.0000
  H   H37       1.0  0.41442  0.64267  0.40785  1.0000
  H   H38       1.0  0.36962  0.77364  0.40891  1.0000
  H   H39       1.0  0.23837  0.59689  0.40521  1.0000
  C   C54       1.0  0.55615  0.09334  0.34414  1.0000
  C   C55       1.0  0.60519  0.18153  0.34626  1.0000
  C   C56       1.0  0.62387  0.15671  0.34265  1.0000
  C   C57       1.0  0.59973  0.11328  0.34096  1.0000
  C   C58       1.0  0.62980  0.22432  0.35340  1.0000
  C   C59       1.0  0.60503  0.38311  0.35217  1.0000
  C   C60       1.0  0.54335  0.38893  0.34101  1.0000
  C   C61       1.0  0.54770  0.45665  0.34238  1.0000
  C   C62       1.0  0.52406  0.41304  0.33916  1.0000
  C   C63       1.0  0.78867  0.40882  0.35120  1.0000
  C   C64       1.0  0.85134  0.40328  0.35186  1.0000
  C   C65       1.0  0.91950  0.46594  0.34179  1.0000
  C   C66       1.0  0.89474  0.42254  0.35012  1.0000
  H   H40       1.0  0.61430  0.09627  0.34016  1.0000
  H   H41       1.0  0.65538  0.17005  0.34225  1.0000
  H   H42       1.0  0.83447  0.37194  0.36081  1.0000
  H   H43       1.0  0.52519  0.35741  0.34063  1.0000
  H   H44       1.0  0.49248  0.39841  0.33831  1.0000
  H   H45       1.0  0.90820  0.40465  0.35693  1.0000
  H   H46       1.0  0.59262  0.36006  0.39650  1.0000
  H   H47       1.0  0.65289  0.23503  0.39759  1.0000
  H   H48       1.0  0.77813  0.42198  0.39370  1.0000
  C   C67       1.0  0.48769  0.52896  0.34257  1.0000
  C   C68       1.0  0.51179  0.53011  0.41719  1.0000
  C   C69       1.0  0.53166  0.50628  0.42076  1.0000
  C   C70       1.0  0.52802  0.48092  0.34556  1.0000
  H   H49       1.0  0.51386  0.54777  0.47184  1.0000
  N   N1        1.0  0.55241  0.50778  0.49739  1.0000
  H   H50       1.0  0.55365  0.52465  0.54858  1.0000
  H   H51       1.0  0.56438  0.49024  0.50604  1.0000
  C   C71       1.0  0.48367  0.96090  0.34454  1.0000
  C   C72       1.0  0.48254  0.98392  0.41907  1.0000
  C   C73       1.0  0.50643  0.02765  0.42260  1.0000
  C   C74       1.0  0.53183  0.04935  0.34741  1.0000
  H   H52       1.0  0.46489  0.96834  0.47374  1.0000
  N   N2        1.0  0.50497  0.04695  0.49916  1.0000
  H   H53       1.0  0.48808  0.03136  0.55035  1.0000
  H   H54       1.0  0.52256  0.07650  0.50779  1.0000
  C   C75       1.0  0.05175  0.52532  0.34080  1.0000
  C   C76       1.0  0.02902  0.50290  0.41726  1.0000
  C   C77       1.0  0.98536  0.48353  0.42142  1.0000
  C   C78       1.0  0.96348  0.48569  0.34480  1.0000
  H   H55       1.0  0.04477  0.50179  0.47265  1.0000
  N   N3        1.0  0.96633  0.46474  0.49986  1.0000
  H   H56       1.0  0.98208  0.46461  0.55193  1.0000
  H   H57       1.0  0.93693  0.45349  0.50892  1.0000
