data_image0
_chemical_formula_structural       CHCNCHCNC2NCHNCHNCN2CNCNCNCNC2NC2OHC2NC2OHC3OHNCHNCHNCN2CNCNCNCNC2NC2OHC2NC2OHC3OHNCHNCHNCHCNCNCNCNCNCNC2NC2OHC2NC2OHC2NC2OHNCHNCHNCHCNCNCNCNCNCNC2NC2OHC2NC2OHC2NC2OH
_chemical_formula_sum              "C84 H24 N48 O12"
_cell_length_a       29.1134
_cell_length_b       29.1134
_cell_length_c       14.8817
_cell_angle_alpha    90
_cell_angle_beta     90
_cell_angle_gamma    120

_space_group_name_H-M_alt    "P 1"
_space_group_IT_number       1

loop_
  _space_group_symop_operation_xyz
  'x, y, z'

loop_
  _atom_site_type_symbol
  _atom_site_label
  _atom_site_symmetry_multiplicity
  _atom_site_fract_x
  _atom_site_fract_y
  _atom_site_fract_z
  _atom_site_occupancy
  C   C1        1.0  0.01988  0.30754  0.37062  1.0000
  H   H1        1.0  0.03645  0.34771  0.37613  1.0000
  C   C2        1.0  0.05112  0.28296  0.36615  1.0000
  N   N1        1.0  0.02486  0.22946  0.35863  1.0000
  C   C3        1.0  0.01988  0.80754  0.37062  1.0000
  H   H2        1.0  0.03644  0.84771  0.37612  1.0000
  C   C4        1.0  0.05112  0.78296  0.36614  1.0000
  N   N2        1.0  0.02486  0.72946  0.35861  1.0000
  C   C5        1.0  0.10678  0.31022  0.36847  1.0000
  C   C6        1.0  0.10678  0.81022  0.36846  1.0000
  N   N3        1.0  0.22252  0.20231  0.37343  1.0000
  C   C7        1.0  0.19181  0.22538  0.37250  1.0000
  H   H3        1.0  0.15152  0.20170  0.37159  1.0000
  N   N4        1.0  0.22051  0.03235  0.37314  1.0000
  C   C8        1.0  0.19011  0.47860  0.37117  1.0000
  H   H4        1.0  0.15009  0.46182  0.36273  1.0000
  N   N5        1.0  0.46630  0.27676  0.37037  1.0000
  C   C9        1.0  0.18808  0.39163  0.37489  1.0000
  N   N6        1.0  0.13444  0.36389  0.37121  1.0000
  N   N7        1.0  0.13444  0.28386  0.36908  1.0000
  C   C10       1.0  0.18836  0.30957  0.37279  1.0000
  N   N8        1.0  0.21432  0.36369  0.37592  1.0000
  C   C11       1.0  0.30083  0.11547  0.37910  1.0000
  N   N9        1.0  0.35447  0.14302  0.37392  1.0000
  C   C12       1.0  0.38378  0.19645  0.36877  1.0000
  N   N10       1.0  0.35664  0.22318  0.37014  1.0000
  C   C13       1.0  0.30274  0.19893  0.37429  1.0000
  N   N11       1.0  0.27568  0.14458  0.37774  1.0000
  C   C14       1.0  0.27662  0.22915  0.37466  1.0000
  C   C15       1.0  0.21618  0.28128  0.37332  1.0000
  N   N12       1.0  0.27004  0.30812  0.37490  1.0000
  C   C16       1.0  0.30149  0.28571  0.37510  1.0000
  C   C17       1.0  0.35557  0.31982  0.37946  1.0000
  O   O1        1.0  0.37489  0.36401  0.34604  1.0000
  H   H5        1.0  0.37324  0.31829  0.43547  1.0000
  C   C18       1.0  0.27424  0.05931  0.38294  1.0000
  C   C19       1.0  0.21475  0.44742  0.37774  1.0000
  N   N13       1.0  0.26790  0.47410  0.38967  1.0000
  C   C20       1.0  0.29892  0.02772  0.39327  1.0000
  C   C21       1.0  0.35140  0.04691  0.41568  1.0000
  O   O2        1.0  0.37230  0.02056  0.39757  1.0000
  H   H6        1.0  0.36336  0.06680  0.47296  1.0000
  C   C22       1.0  0.43971  0.22285  0.36449  1.0000
  C   C23       1.0  0.47131  0.19820  0.35687  1.0000
  C   C24       1.0  0.45266  0.14516  0.34163  1.0000
  O   O3        1.0  0.43582  0.12976  0.26590  1.0000
  H   H7        1.0  0.47422  0.13057  0.36716  1.0000
  N   N14       1.0  0.22252  0.70232  0.37342  1.0000
  C   C25       1.0  0.19180  0.72538  0.37249  1.0000
  H   H8        1.0  0.15151  0.70170  0.37158  1.0000
  N   N15       1.0  0.22051  0.53235  0.37314  1.0000
  C   C26       1.0  0.19011  0.97861  0.37117  1.0000
  H   H9        1.0  0.15009  0.96183  0.36274  1.0000
  N   N16       1.0  0.46629  0.77676  0.37036  1.0000
  C   C27       1.0  0.18808  0.89163  0.37488  1.0000
  N   N17       1.0  0.13443  0.86389  0.37121  1.0000
  N   N18       1.0  0.13443  0.78386  0.36906  1.0000
  C   C28       1.0  0.18836  0.80957  0.37279  1.0000
  N   N19       1.0  0.21431  0.86369  0.37592  1.0000
  C   C29       1.0  0.30083  0.61547  0.37908  1.0000
  N   N20       1.0  0.35447  0.64302  0.37391  1.0000
  C   C30       1.0  0.38378  0.69645  0.36876  1.0000
  N   N21       1.0  0.35663  0.72318  0.37012  1.0000
  C   C31       1.0  0.30274  0.69893  0.37428  1.0000
  N   N22       1.0  0.27568  0.64458  0.37774  1.0000
  C   C32       1.0  0.27661  0.72915  0.37465  1.0000
  C   C33       1.0  0.21617  0.78128  0.37331  1.0000
  N   N23       1.0  0.27003  0.80812  0.37490  1.0000
  C   C34       1.0  0.30148  0.78571  0.37510  1.0000
  C   C35       1.0  0.35557  0.81982  0.37945  1.0000
  O   O4        1.0  0.37489  0.86402  0.34604  1.0000
  H   H10       1.0  0.37324  0.81829  0.43547  1.0000
  C   C36       1.0  0.27424  0.55931  0.38293  1.0000
  C   C37       1.0  0.21474  0.94742  0.37774  1.0000
  N   N24       1.0  0.26790  0.97410  0.38967  1.0000
  C   C38       1.0  0.29892  0.52773  0.39326  1.0000
  C   C39       1.0  0.35140  0.54692  0.41568  1.0000
  O   O5        1.0  0.37231  0.52057  0.39755  1.0000
  H   H11       1.0  0.36337  0.56681  0.47294  1.0000
  C   C40       1.0  0.43971  0.72285  0.36447  1.0000
  C   C41       1.0  0.47130  0.69820  0.35685  1.0000
  C   C42       1.0  0.45265  0.64517  0.34159  1.0000
  O   O6        1.0  0.43581  0.62977  0.26587  1.0000
  H   H12       1.0  0.47422  0.63057  0.36712  1.0000
  N   N25       1.0  0.72252  0.20231  0.37343  1.0000
  C   C43       1.0  0.69181  0.22538  0.37250  1.0000
  H   H13       1.0  0.65152  0.20170  0.37159  1.0000
  N   N26       1.0  0.72051  0.03235  0.37314  1.0000
  C   C44       1.0  0.69011  0.47860  0.37117  1.0000
  H   H14       1.0  0.65009  0.46182  0.36273  1.0000
  N   N27       1.0  0.96630  0.27676  0.37037  1.0000
  C   C45       1.0  0.51988  0.30754  0.37062  1.0000
  H   H15       1.0  0.53645  0.34771  0.37613  1.0000
  C   C46       1.0  0.68808  0.39163  0.37489  1.0000
  N   N28       1.0  0.63444  0.36389  0.37121  1.0000
  C   C47       1.0  0.60678  0.31022  0.36847  1.0000
  N   N29       1.0  0.63444  0.28386  0.36908  1.0000
  C   C48       1.0  0.68836  0.30957  0.37279  1.0000
  N   N30       1.0  0.71432  0.36369  0.37592  1.0000
  C   C49       1.0  0.80083  0.11547  0.37910  1.0000
  N   N31       1.0  0.85447  0.14302  0.37392  1.0000
  C   C50       1.0  0.88378  0.19645  0.36877  1.0000
  N   N32       1.0  0.85664  0.22318  0.37014  1.0000
  C   C51       1.0  0.80274  0.19893  0.37429  1.0000
  N   N33       1.0  0.77568  0.14458  0.37774  1.0000
  C   C52       1.0  0.77662  0.22915  0.37466  1.0000
  C   C53       1.0  0.71618  0.28128  0.37332  1.0000
  N   N34       1.0  0.77003  0.30812  0.37490  1.0000
  C   C54       1.0  0.80149  0.28571  0.37510  1.0000
  C   C55       1.0  0.85557  0.31982  0.37946  1.0000
  O   O7        1.0  0.87489  0.36401  0.34604  1.0000
  H   H16       1.0  0.87325  0.31829  0.43547  1.0000
  C   C56       1.0  0.77424  0.05931  0.38294  1.0000
  C   C57       1.0  0.71475  0.44742  0.37774  1.0000
  N   N35       1.0  0.76790  0.47410  0.38967  1.0000
  C   C58       1.0  0.79892  0.02772  0.39327  1.0000
  C   C59       1.0  0.85140  0.04691  0.41568  1.0000
  O   O8        1.0  0.87230  0.02056  0.39757  1.0000
  H   H17       1.0  0.86336  0.06680  0.47296  1.0000
  C   C60       1.0  0.93971  0.22285  0.36449  1.0000
  C   C61       1.0  0.55112  0.28296  0.36615  1.0000
  N   N36       1.0  0.52486  0.22946  0.35863  1.0000
  C   C62       1.0  0.97131  0.19820  0.35687  1.0000
  C   C63       1.0  0.95266  0.14516  0.34163  1.0000
  O   O9        1.0  0.93582  0.12976  0.26590  1.0000
  H   H18       1.0  0.97422  0.13057  0.36716  1.0000
  N   N37       1.0  0.72252  0.70232  0.37342  1.0000
  C   C64       1.0  0.69180  0.72538  0.37249  1.0000
  H   H19       1.0  0.65151  0.70170  0.37158  1.0000
  N   N38       1.0  0.72051  0.53235  0.37314  1.0000
  C   C65       1.0  0.69011  0.97861  0.37117  1.0000
  H   H20       1.0  0.65009  0.96183  0.36274  1.0000
  N   N39       1.0  0.96629  0.77676  0.37036  1.0000
  C   C66       1.0  0.51988  0.80754  0.37062  1.0000
  H   H21       1.0  0.53644  0.84771  0.37612  1.0000
  C   C67       1.0  0.68808  0.89163  0.37488  1.0000
  N   N40       1.0  0.63443  0.86389  0.37121  1.0000
  C   C68       1.0  0.60678  0.81022  0.36846  1.0000
  N   N41       1.0  0.63443  0.78386  0.36906  1.0000
  C   C69       1.0  0.68836  0.80957  0.37279  1.0000
  N   N42       1.0  0.71432  0.86369  0.37592  1.0000
  C   C70       1.0  0.80083  0.61547  0.37908  1.0000
  N   N43       1.0  0.85447  0.64302  0.37391  1.0000
  C   C71       1.0  0.88377  0.69645  0.36876  1.0000
  N   N44       1.0  0.85664  0.72318  0.37012  1.0000
  C   C72       1.0  0.80274  0.69893  0.37428  1.0000
  N   N45       1.0  0.77568  0.64458  0.37774  1.0000
  C   C73       1.0  0.77662  0.72915  0.37465  1.0000
  C   C74       1.0  0.71618  0.78128  0.37331  1.0000
  N   N46       1.0  0.77003  0.80812  0.37490  1.0000
  C   C75       1.0  0.80148  0.78571  0.37510  1.0000
  C   C76       1.0  0.85557  0.81982  0.37945  1.0000
  O   O10       1.0  0.87489  0.86402  0.34604  1.0000
  H   H22       1.0  0.87324  0.81829  0.43547  1.0000
  C   C77       1.0  0.77424  0.55931  0.38293  1.0000
  C   C78       1.0  0.71474  0.94742  0.37774  1.0000
  N   N47       1.0  0.76790  0.97410  0.38967  1.0000
  C   C79       1.0  0.79892  0.52773  0.39326  1.0000
  C   C80       1.0  0.85140  0.54692  0.41568  1.0000
  O   O11       1.0  0.87231  0.52057  0.39755  1.0000
  H   H23       1.0  0.86336  0.56681  0.47294  1.0000
  C   C81       1.0  0.93971  0.72285  0.36447  1.0000
  C   C82       1.0  0.55112  0.78296  0.36614  1.0000
  N   N48       1.0  0.52486  0.72946  0.35861  1.0000
  C   C83       1.0  0.97130  0.69820  0.35685  1.0000
  C   C84       1.0  0.95265  0.64517  0.34159  1.0000
  O   O12       1.0  0.93581  0.62977  0.26587  1.0000
  H   H24       1.0  0.97422  0.63057  0.36712  1.0000
