data_image0
_chemical_formula_structural       C3H2NHC3H2NHC3H2NHCNCNCNC18H12C3O3CNCNCNC18H12C3O3C3H2NHC3H2NHC3H2NH
_chemical_formula_sum              "C66 H42 N12 O6"
_cell_length_a       36.7656
_cell_length_b       36.7652
_cell_length_c       15.0996
_cell_angle_alpha    90
_cell_angle_beta     90
_cell_angle_gamma    120

_space_group_name_H-M_alt    "P 1"
_space_group_IT_number       1

loop_
  _space_group_symop_operation_xyz
  'x, y, z'

loop_
  _atom_site_type_symbol
  _atom_site_label
  _atom_site_symmetry_multiplicity
  _atom_site_fract_x
  _atom_site_fract_y
  _atom_site_fract_z
  _atom_site_occupancy
  C   C1        1.0  0.46910  0.51459  0.31188  1.0000
  C   C2        1.0  0.48978  0.50769  0.24060  1.0000
  C   C3        1.0  0.51492  0.48946  0.25511  1.0000
  H   H1        1.0  0.48602  0.51524  0.17735  1.0000
  H   H2        1.0  0.52803  0.48324  0.20166  1.0000
  N   N1        1.0  0.44694  0.53469  0.29684  1.0000
  H   H3        1.0  0.45847  0.55703  0.25257  1.0000
  C   C4        1.0  0.47718  0.95284  0.31190  1.0000
  C   C5        1.0  0.48403  0.98041  0.24062  1.0000
  C   C6        1.0  0.50224  0.02379  0.25511  1.0000
  H   H4        1.0  0.47649  0.96909  0.17736  1.0000
  H   H5        1.0  0.50846  0.04310  0.20165  1.0000
  N   N2        1.0  0.45708  0.91059  0.29685  1.0000
  H   H6        1.0  0.43474  0.89978  0.25258  1.0000
  C   C7        1.0  0.03891  0.52271  0.31190  1.0000
  C   C8        1.0  0.01134  0.50202  0.24061  1.0000
  C   C9        1.0  0.96797  0.47684  0.25507  1.0000
  H   H7        1.0  0.02266  0.50577  0.17736  1.0000
  H   H8        1.0  0.94865  0.46375  0.20161  1.0000
  N   N3        1.0  0.08116  0.54485  0.29688  1.0000
  H   H9        1.0  0.09196  0.53331  0.25261  1.0000
  C   C10       1.0  0.28569  0.64778  0.32017  1.0000
  N   N4        1.0  0.30204  0.62184  0.32033  1.0000
  C   C11       1.0  0.34397  0.63624  0.32017  1.0000
  N   N5        1.0  0.36991  0.67853  0.32034  1.0000
  C   C12       1.0  0.35551  0.70606  0.32017  1.0000
  N   N6        1.0  0.31322  0.68971  0.32034  1.0000
  C   C13       1.0  0.36010  0.60830  0.32221  1.0000
  C   C14       1.0  0.33313  0.56415  0.32408  1.0000
  C   C15       1.0  0.34939  0.53677  0.32837  1.0000
  C   C16       1.0  0.39320  0.55266  0.32956  1.0000
  C   C17       1.0  0.42019  0.59667  0.32820  1.0000
  C   C18       1.0  0.40395  0.62396  0.32440  1.0000
  C   C19       1.0  0.24161  0.63165  0.32221  1.0000
  C   C20       1.0  0.21343  0.58781  0.32438  1.0000
  C   C21       1.0  0.16990  0.57157  0.32817  1.0000
  C   C22       1.0  0.15288  0.59857  0.32959  1.0000
  C   C23       1.0  0.18081  0.64238  0.32844  1.0000
  C   C24       1.0  0.22445  0.65863  0.32411  1.0000
  C   C25       1.0  0.38345  0.75014  0.32225  1.0000
  C   C26       1.0  0.36778  0.77832  0.32443  1.0000
  C   C27       1.0  0.39508  0.82185  0.32821  1.0000
  C   C28       1.0  0.43909  0.83887  0.32959  1.0000
  C   C29       1.0  0.45498  0.81095  0.32844  1.0000
  C   C30       1.0  0.42760  0.76731  0.32410  1.0000
  H   H10       1.0  0.15088  0.53969  0.33239  1.0000
  H   H11       1.0  0.22413  0.56692  0.32437  1.0000
  H   H12       1.0  0.16965  0.66290  0.32976  1.0000
  H   H13       1.0  0.24350  0.69056  0.32313  1.0000
  H   H14       1.0  0.33620  0.76761  0.32438  1.0000
  H   H15       1.0  0.38221  0.84086  0.33237  1.0000
  H   H16       1.0  0.44048  0.74826  0.32313  1.0000
  H   H17       1.0  0.48666  0.82211  0.32972  1.0000
  H   H18       1.0  0.42483  0.65556  0.32439  1.0000
  H   H19       1.0  0.45208  0.60955  0.33237  1.0000
  H   H20       1.0  0.32887  0.50509  0.32966  1.0000
  H   H21       1.0  0.30120  0.55126  0.32308  1.0000
  C   C31       1.0  0.10888  0.58176  0.33642  1.0000
  C   C32       1.0  0.46629  0.88288  0.33638  1.0000
  C   C33       1.0  0.41001  0.52546  0.33634  1.0000
  O   O1        1.0  0.38805  0.48937  0.38292  1.0000
  O   O2        1.0  0.50239  0.89701  0.38296  1.0000
  O   O3        1.0  0.09476  0.60373  0.38302  1.0000
  C   C34       1.0  0.70443  0.34561  0.33315  1.0000
  N   N7        1.0  0.68808  0.37156  0.33304  1.0000
  C   C35       1.0  0.64615  0.35716  0.33325  1.0000
  N   N8        1.0  0.62020  0.31486  0.33308  1.0000
  C   C36       1.0  0.63460  0.28733  0.33320  1.0000
  N   N9        1.0  0.67690  0.30368  0.33300  1.0000
  C   C37       1.0  0.63002  0.38510  0.33125  1.0000
  C   C38       1.0  0.65700  0.42925  0.32937  1.0000
  C   C39       1.0  0.64074  0.45664  0.32511  1.0000
  C   C40       1.0  0.59693  0.44075  0.32400  1.0000
  C   C41       1.0  0.56994  0.39674  0.32543  1.0000
  C   C42       1.0  0.58617  0.36944  0.32912  1.0000
  C   C43       1.0  0.74850  0.36174  0.33109  1.0000
  C   C44       1.0  0.77668  0.40559  0.32890  1.0000
  C   C45       1.0  0.82021  0.42182  0.32512  1.0000
  C   C46       1.0  0.83723  0.39483  0.32380  1.0000
  C   C47       1.0  0.80932  0.35102  0.32498  1.0000
  C   C48       1.0  0.76567  0.33477  0.32925  1.0000
  C   C49       1.0  0.60665  0.24325  0.33117  1.0000
  C   C50       1.0  0.62231  0.21507  0.32903  1.0000
  C   C51       1.0  0.59500  0.17154  0.32529  1.0000
  C   C52       1.0  0.55099  0.15452  0.32392  1.0000
  C   C53       1.0  0.53512  0.18245  0.32504  1.0000
  C   C54       1.0  0.56251  0.22610  0.32931  1.0000
  H   H22       1.0  0.83923  0.45371  0.32099  1.0000
  H   H23       1.0  0.76598  0.42647  0.32892  1.0000
  H   H24       1.0  0.82048  0.33050  0.32372  1.0000
  H   H25       1.0  0.74663  0.30284  0.33026  1.0000
  H   H26       1.0  0.65390  0.22577  0.32901  1.0000
  H   H27       1.0  0.60787  0.15252  0.32108  1.0000
  H   H28       1.0  0.54963  0.24515  0.33029  1.0000
  H   H29       1.0  0.50343  0.17130  0.32375  1.0000
  H   H30       1.0  0.56529  0.33785  0.32913  1.0000
  H   H31       1.0  0.53805  0.38387  0.32119  1.0000
  H   H32       1.0  0.66127  0.48832  0.32378  1.0000
  H   H33       1.0  0.68893  0.44213  0.33032  1.0000
  C   C55       1.0  0.88125  0.41165  0.31709  1.0000
  C   C56       1.0  0.52379  0.11052  0.31713  1.0000
  C   C57       1.0  0.58012  0.46794  0.31719  1.0000
  O   O4        1.0  0.60209  0.50404  0.27060  1.0000
  O   O5        1.0  0.48769  0.09639  0.27055  1.0000
  O   O6        1.0  0.89539  0.38969  0.27053  1.0000
  C   C58       1.0  0.50035  0.48572  0.41295  1.0000
  C   C59       1.0  0.47519  0.50393  0.39844  1.0000
  C   C60       1.0  0.52104  0.47883  0.34167  1.0000
  H   H34       1.0  0.46211  0.51018  0.45189  1.0000
  H   H35       1.0  0.50413  0.47818  0.47621  1.0000
  N   N10       1.0  0.54321  0.45875  0.35674  1.0000
  H   H36       1.0  0.53168  0.43640  0.40101  1.0000
  C   C61       1.0  0.50602  0.01298  0.41294  1.0000
  C   C62       1.0  0.48783  0.96961  0.39845  1.0000
  C   C63       1.0  0.51289  0.04056  0.34167  1.0000
  H   H37       1.0  0.48160  0.95029  0.45190  1.0000
  H   H38       1.0  0.51357  0.02430  0.47619  1.0000
  N   N11       1.0  0.53299  0.08281  0.35669  1.0000
  H   H39       1.0  0.55534  0.09362  0.40094  1.0000
  C   C64       1.0  0.97876  0.49144  0.41292  1.0000
  C   C65       1.0  0.02213  0.51660  0.39845  1.0000
  C   C66       1.0  0.95119  0.47074  0.34162  1.0000
  H   H40       1.0  0.04145  0.52967  0.45191  1.0000
  H   H41       1.0  0.96743  0.48765  0.47617  1.0000
  N   N12       1.0  0.90894  0.44857  0.35663  1.0000
  H   H42       1.0  0.89811  0.46009  0.40089  1.0000
