data_image0
_chemical_formula_structural       C18H9C3O3C18H9C3O3C3H2C2HNO2NHC3H2C2HNO2NHC3H2C2HNO2NHC6H6C6H6C7H3NO2NHC7H3NO2NHC7H3NO2NH
_chemical_formula_sum              "C90 H54 O18 N12"
_cell_length_a       44.5358
_cell_length_b       44.5358
_cell_length_c       15.0459
_cell_angle_alpha    90
_cell_angle_beta     90
_cell_angle_gamma    120

_space_group_name_H-M_alt    "P 1"
_space_group_IT_number       1

loop_
  _space_group_symop_operation_xyz
  'x, y, z'

loop_
  _atom_site_type_symbol
  _atom_site_label
  _atom_site_symmetry_multiplicity
  _atom_site_fract_x
  _atom_site_fract_y
  _atom_site_fract_z
  _atom_site_occupancy
  C   C1        1.0  0.29444  0.64294  0.30536  1.0000
  C   C2        1.0  0.30916  0.67936  0.30522  1.0000
  C   C3        1.0  0.34546  0.70175  0.30538  1.0000
  C   C4        1.0  0.36716  0.68703  0.30523  1.0000
  C   C5        1.0  0.35325  0.65074  0.30536  1.0000
  C   C6        1.0  0.31683  0.62903  0.30522  1.0000
  C   C7        1.0  0.35986  0.73831  0.30800  1.0000
  C   C8        1.0  0.34912  0.75535  0.24737  1.0000
  C   C9        1.0  0.36389  0.79160  0.24957  1.0000
  C   C10       1.0  0.38995  0.81191  0.31214  1.0000
  C   C11       1.0  0.25788  0.62078  0.30796  1.0000
  C   C12       1.0  0.18428  0.57730  0.31198  1.0000
  C   C13       1.0  0.20459  0.57153  0.24946  1.0000
  C   C14       1.0  0.24085  0.59301  0.24730  1.0000
  C   C15       1.0  0.37541  0.63633  0.30798  1.0000
  C   C16       1.0  0.41890  0.60623  0.31204  1.0000
  C   C17       1.0  0.42467  0.63230  0.24951  1.0000
  C   C18       1.0  0.40319  0.64708  0.24735  1.0000
  H   H1        1.0  0.19313  0.55218  0.20323  1.0000
  H   H2        1.0  0.25463  0.58865  0.19963  1.0000
  H   H3        1.0  0.40753  0.66519  0.19963  1.0000
  H   H4        1.0  0.44401  0.64017  0.20326  1.0000
  H   H5        1.0  0.35600  0.80307  0.20337  1.0000
  H   H6        1.0  0.33099  0.74158  0.19968  1.0000
  H   H7        1.0  0.29319  0.68976  0.30602  1.0000
  H   H8        1.0  0.30644  0.60266  0.30601  1.0000
  H   H9        1.0  0.39353  0.70301  0.30604  1.0000
  C   C19       1.0  0.40539  0.84862  0.31359  1.0000
  C   C20       1.0  0.14757  0.55603  0.31331  1.0000
  C   C21       1.0  0.44017  0.59078  0.31341  1.0000
  O   O1        1.0  0.47347  0.61019  0.28586  1.0000
  O   O2        1.0  0.13366  0.52272  0.28581  1.0000
  O   O3        1.0  0.38599  0.86252  0.28589  1.0000
  C   C22       1.0  0.70116  0.35395  0.31678  1.0000
  C   C23       1.0  0.68607  0.31746  0.31678  1.0000
  C   C24       1.0  0.64974  0.29503  0.31677  1.0000
  C   C25       1.0  0.62834  0.31012  0.31676  1.0000
  C   C26       1.0  0.64225  0.34646  0.31676  1.0000
  C   C27       1.0  0.67874  0.36786  0.31677  1.0000
  C   C28       1.0  0.63507  0.25823  0.31555  1.0000
  C   C29       1.0  0.64875  0.24233  0.26002  1.0000
  C   C30       1.0  0.63383  0.20609  0.25742  1.0000
  C   C31       1.0  0.60459  0.18414  0.31012  1.0000
  C   C32       1.0  0.73796  0.37608  0.31555  1.0000
  C   C33       1.0  0.81206  0.41969  0.31015  1.0000
  C   C34       1.0  0.79011  0.42699  0.25744  1.0000
  C   C35       1.0  0.75386  0.40565  0.26002  1.0000
  C   C36       1.0  0.62012  0.36113  0.31552  1.0000
  C   C37       1.0  0.57650  0.39160  0.31008  1.0000
  C   C38       1.0  0.56921  0.36236  0.25738  1.0000
  C   C39       1.0  0.59054  0.34745  0.25997  1.0000
  H   H10       1.0  0.80023  0.44793  0.21574  1.0000
  H   H11       1.0  0.73924  0.41154  0.21888  1.0000
  H   H12       1.0  0.58464  0.32693  0.21888  1.0000
  H   H13       1.0  0.54826  0.35152  0.21571  1.0000
  H   H14       1.0  0.64465  0.19597  0.21573  1.0000
  H   H15       1.0  0.66926  0.25696  0.21889  1.0000
  H   H16       1.0  0.70191  0.30694  0.31632  1.0000
  H   H17       1.0  0.68925  0.39421  0.31629  1.0000
  H   H18       1.0  0.60198  0.29428  0.31628  1.0000
  C   C40       1.0  0.58875  0.14725  0.30356  1.0000
  C   C41       1.0  0.84894  0.44074  0.30360  1.0000
  C   C42       1.0  0.55544  0.40743  0.30355  1.0000
  O   O4        1.0  0.53404  0.39907  0.23240  1.0000
  O   O5        1.0  0.86198  0.46215  0.23245  1.0000
  O   O6        1.0  0.59710  0.13421  0.23240  1.0000
  C   C43       1.0  0.44591  0.53989  0.33659  1.0000
  C   C44       1.0  0.45014  0.48813  0.30483  1.0000
  C   C45       1.0  0.43195  0.50633  0.29969  1.0000
  H   H19       1.0  0.43958  0.46402  0.27675  1.0000
  H   H20       1.0  0.40859  0.49512  0.26755  1.0000
  C   C46       1.0  0.53545  0.46301  0.28178  1.0000
  C   C47       1.0  0.51747  0.48160  0.27653  1.0000
  H   H21       1.0  0.54844  0.46206  0.22680  1.0000
  N   N1        1.0  0.51644  0.49765  0.19607  1.0000
  O   O7        1.0  0.54629  0.52009  0.17106  1.0000
  O   O8        1.0  0.50216  0.47578  0.13491  1.0000
  N   N2        1.0  0.42717  0.55658  0.33289  1.0000
  H   H22       1.0  0.40204  0.54197  0.33758  1.0000
  C   C48       1.0  0.45626  0.90527  0.33664  1.0000
  C   C49       1.0  0.50802  0.96124  0.30486  1.0000
  C   C50       1.0  0.48982  0.92486  0.29974  1.0000
  H   H23       1.0  0.53214  0.97479  0.27679  1.0000
  H   H24       1.0  0.50104  0.91270  0.26766  1.0000
  C   C51       1.0  0.53316  0.07169  0.28176  1.0000
  C   C52       1.0  0.51458  0.03512  0.27651  1.0000
  H   H25       1.0  0.53412  0.08563  0.22678  1.0000
  N   N3        1.0  0.49854  0.01804  0.19603  1.0000
  O   O9        1.0  0.47609  0.02544  0.17101  1.0000
  O   O10       1.0  0.52040  0.02562  0.13490  1.0000
  N   N4        1.0  0.43958  0.86983  0.33309  1.0000
  H   H26       1.0  0.45421  0.85933  0.33772  1.0000
  C   C53       1.0  0.09092  0.55027  0.33656  1.0000
  C   C54       1.0  0.03494  0.54602  0.30481  1.0000
  C   C55       1.0  0.07132  0.56422  0.29967  1.0000
  H   H27       1.0  0.02138  0.55659  0.27674  1.0000
  H   H28       1.0  0.08347  0.58758  0.26751  1.0000
  C   C56       1.0  0.92450  0.46072  0.28180  1.0000
  C   C57       1.0  0.96107  0.47870  0.27655  1.0000
  H   H29       1.0  0.91056  0.44773  0.22684  1.0000
  N   N5        1.0  0.97815  0.47972  0.19607  1.0000
  O   O11       1.0  0.97074  0.44988  0.17107  1.0000
  O   O12       1.0  0.97056  0.49401  0.13493  1.0000
  N   N6        1.0  0.12636  0.56902  0.33286  1.0000
  H   H30       1.0  0.13687  0.59414  0.33755  1.0000
  C   C58       1.0  0.40000  0.79468  0.37414  1.0000
  C   C59       1.0  0.38528  0.75849  0.37196  1.0000
  C   C60       1.0  0.23769  0.62603  0.37187  1.0000
  C   C61       1.0  0.20150  0.60456  0.37399  1.0000
  C   C62       1.0  0.37018  0.61091  0.37194  1.0000
  C   C63       1.0  0.39164  0.59618  0.37407  1.0000
  H   H31       1.0  0.18793  0.60888  0.42231  1.0000
  H   H32       1.0  0.24922  0.64530  0.41831  1.0000
  H   H33       1.0  0.35089  0.60315  0.41834  1.0000
  H   H34       1.0  0.38732  0.57830  0.42239  1.0000
  H   H35       1.0  0.39303  0.74696  0.41838  1.0000
  H   H36       1.0  0.41787  0.80824  0.42248  1.0000
  C   C64       1.0  0.59083  0.20015  0.36519  1.0000
  C   C65       1.0  0.60591  0.23640  0.36840  1.0000
  C   C66       1.0  0.75979  0.36875  0.36842  1.0000
  C   C67       1.0  0.79604  0.38992  0.36520  1.0000
  C   C68       1.0  0.62744  0.39028  0.36838  1.0000
  C   C69       1.0  0.60627  0.40536  0.36516  1.0000
  H   H37       1.0  0.81045  0.38254  0.40233  1.0000
  H   H38       1.0  0.74951  0.34778  0.41007  1.0000
  H   H39       1.0  0.64841  0.40097  0.41002  1.0000
  H   H40       1.0  0.61365  0.42716  0.40227  1.0000
  H   H41       1.0  0.59522  0.24668  0.41003  1.0000
  H   H42       1.0  0.56903  0.18574  0.40228  1.0000
  C   C70       1.0  0.47802  0.55426  0.38182  1.0000
  C   C71       1.0  0.49614  0.53601  0.38785  1.0000
  C   C72       1.0  0.48239  0.50287  0.34898  1.0000
  C   C73       1.0  0.50080  0.48460  0.35360  1.0000
  C   C74       1.0  0.50268  0.46952  0.43499  1.0000
  C   C75       1.0  0.52064  0.45082  0.43750  1.0000
  C   C76       1.0  0.53649  0.44653  0.36102  1.0000
  H   H43       1.0  0.52164  0.43966  0.49605  1.0000
  H   H44       1.0  0.48811  0.57784  0.41242  1.0000
  H   H45       1.0  0.51938  0.54707  0.42070  1.0000
  N   N7        1.0  0.48629  0.47296  0.51197  1.0000
  O   O13       1.0  0.50780  0.48855  0.57306  1.0000
  O   O14       1.0  0.46330  0.44397  0.54062  1.0000
  N   N8        1.0  0.55430  0.42878  0.36696  1.0000
  H   H46       1.0  0.56490  0.42975  0.42425  1.0000
  C   C77       1.0  0.44190  0.92301  0.38188  1.0000
  C   C78       1.0  0.46014  0.95938  0.38784  1.0000
  C   C79       1.0  0.49328  0.97876  0.34896  1.0000
  C   C80       1.0  0.51156  0.01544  0.35357  1.0000
  C   C81       1.0  0.52665  0.03241  0.43497  1.0000
  C   C82       1.0  0.54536  0.06906  0.43747  1.0000
  C   C83       1.0  0.54962  0.08919  0.36101  1.0000
  H   H47       1.0  0.55650  0.08121  0.49604  1.0000
  H   H48       1.0  0.41831  0.90952  0.41247  1.0000
  H   H49       1.0  0.44909  0.97157  0.42068  1.0000
  N   N9        1.0  0.52320  0.01257  0.51195  1.0000
  O   O15       1.0  0.50762  0.01849  0.57304  1.0000
  O   O16       1.0  0.55219  0.01856  0.54060  1.0000
  N   N10       1.0  0.56739  0.12476  0.36697  1.0000
  H   H50       1.0  0.56643  0.13439  0.42426  1.0000
  C   C84       1.0  0.07319  0.51816  0.38179  1.0000
  C   C85       1.0  0.03683  0.50003  0.38784  1.0000
  C   C86       1.0  0.01743  0.51377  0.34897  1.0000
  C   C87       1.0  0.98076  0.49537  0.35360  1.0000
  C   C88       1.0  0.96379  0.49349  0.43500  1.0000
  C   C89       1.0  0.92714  0.47553  0.43753  1.0000
  C   C90       1.0  0.90700  0.45968  0.36105  1.0000
  H   H51       1.0  0.91498  0.47454  0.49608  1.0000
  H   H52       1.0  0.08670  0.50808  0.41239  1.0000
  H   H53       1.0  0.02465  0.47680  0.42070  1.0000
  N   N11       1.0  0.98363  0.50989  0.51198  1.0000
  O   O17       1.0  0.97772  0.48837  0.57307  1.0000
  O   O18       1.0  0.97763  0.53287  0.54063  1.0000
  N   N12       1.0  0.87144  0.44188  0.36701  1.0000
  H   H54       1.0  0.86180  0.43128  0.42430  1.0000
