data_image0
_chemical_formula_structural       C8H8C2NHCHC2NHCHC3NC3NC5NC5NC20H18N4CNCHCHCNCHCH
_chemical_formula_sum              "C56 H34 N12"
_cell_length_a       25.5874
_cell_length_b       25.5852
_cell_length_c       14.6738
_cell_angle_alpha    90
_cell_angle_beta     90
_cell_angle_gamma    90.03

_space_group_name_H-M_alt    "P 1"
_space_group_IT_number       1

loop_
  _space_group_symop_operation_xyz
  'x, y, z'

loop_
  _atom_site_type_symbol
  _atom_site_label
  _atom_site_symmetry_multiplicity
  _atom_site_fract_x
  _atom_site_fract_y
  _atom_site_fract_z
  _atom_site_occupancy
  C   C1        1.0  0.23450  0.00247  0.29795  1.0000
  C   C2        1.0  0.28957  0.00224  0.29829  1.0000
  C   C3        1.0  0.00352  0.79020  0.29804  1.0000
  C   C4        1.0  0.00302  0.73513  0.29823  1.0000
  C   C5        1.0  0.73609  0.02010  0.29068  1.0000
  C   C6        1.0  0.79118  0.02046  0.29124  1.0000
  C   C7        1.0  0.02138  0.23331  0.29145  1.0000
  C   C8        1.0  0.02127  0.28840  0.29076  1.0000
  H   H1        1.0  0.02858  0.30744  0.23073  1.0000
  H   H2        1.0  0.02868  0.21363  0.23207  1.0000
  H   H3        1.0  0.81077  0.02773  0.23176  1.0000
  H   H4        1.0  0.71698  0.02717  0.23064  1.0000
  H   H5        1.0  0.99603  0.80961  0.23845  1.0000
  H   H6        1.0  0.99485  0.71619  0.23864  1.0000
  H   H7        1.0  0.30858  0.99386  0.23886  1.0000
  H   H8        1.0  0.21517  0.99455  0.23845  1.0000
  C   C9        1.0  0.01103  0.56501  0.34958  1.0000
  C   C10       1.0  0.00954  0.52478  0.28349  1.0000
  N   N1        1.0  0.00969  0.47402  0.31081  1.0000
  H   H9        1.0  0.00829  0.53295  0.21532  1.0000
  C   C11       1.0  0.01072  0.61751  0.32544  1.0000
  H   H10       1.0  0.00893  0.62667  0.25971  1.0000
  C   C12       1.0  0.45961  0.01050  0.34992  1.0000
  C   C13       1.0  0.49983  0.00904  0.28382  1.0000
  N   N2        1.0  0.55058  0.00906  0.31115  1.0000
  H   H11       1.0  0.49166  0.00793  0.21564  1.0000
  C   C14       1.0  0.40711  0.01028  0.32573  1.0000
  H   H12       1.0  0.39799  0.00852  0.25999  1.0000
  C   C15       1.0  0.10919  0.14788  0.37558  1.0000
  C   C16       1.0  0.14755  0.10993  0.37648  1.0000
  C   C17       1.0  0.12335  0.06095  0.37745  1.0000
  N   N3        1.0  0.07127  0.07118  0.37638  1.0000
  C   C18       1.0  0.06047  0.12315  0.37499  1.0000
  C   C19       1.0  0.01137  0.14946  0.37378  1.0000
  C   C20       1.0  0.96200  0.12387  0.37371  1.0000
  N   N4        1.0  0.95207  0.07191  0.37411  1.0000
  C   C21       1.0  0.90021  0.06143  0.37342  1.0000
  C   C22       1.0  0.87524  0.10997  0.37293  1.0000
  C   C23       1.0  0.91321  0.14833  0.37250  1.0000
  C   C24       1.0  0.87514  0.01179  0.37367  1.0000
  C   C25       1.0  0.90199  0.96299  0.37527  1.0000
  N   N5        1.0  0.95407  0.95275  0.37631  1.0000
  C   C26       1.0  0.96486  0.90078  0.37739  1.0000
  C   C27       1.0  0.91613  0.87607  0.37753  1.0000
  C   C28       1.0  0.87779  0.91400  0.37553  1.0000
  C   C29       1.0  0.01396  0.87444  0.37862  1.0000
  C   C30       1.0  0.06332  0.90003  0.37893  1.0000
  N   N6        1.0  0.07325  0.95200  0.37842  1.0000
  C   C31       1.0  0.12510  0.96249  0.37864  1.0000
  C   C32       1.0  0.15007  0.91395  0.37966  1.0000
  C   C33       1.0  0.11212  0.87558  0.37915  1.0000
  C   C34       1.0  0.15018  0.01213  0.37845  1.0000
  C   C35       1.0  0.20615  0.01284  0.37861  1.0000
  C   C36       1.0  0.31798  0.01278  0.37911  1.0000
  C   C37       1.0  0.28943  0.02312  0.45953  1.0000
  C   C38       1.0  0.23434  0.02314  0.45950  1.0000
  C   C39       1.0  0.01379  0.81846  0.37885  1.0000
  C   C40       1.0  0.01323  0.70662  0.37907  1.0000
  C   C41       1.0  0.02339  0.73506  0.45967  1.0000
  C   C42       1.0  0.02368  0.79016  0.45978  1.0000
  C   C43       1.0  0.81917  0.01108  0.37268  1.0000
  C   C44       1.0  0.79062  0.00110  0.45329  1.0000
  C   C45       1.0  0.73555  0.00056  0.45243  1.0000
  C   C46       1.0  0.70736  0.01043  0.37114  1.0000
  C   C47       1.0  0.01152  0.20542  0.37284  1.0000
  C   C48       1.0  0.00134  0.23407  0.45325  1.0000
  C   C49       1.0  0.01137  0.31723  0.37102  1.0000
  C   C50       1.0  0.00106  0.28913  0.45226  1.0000
  H   H13       1.0  0.99290  0.30839  0.51155  1.0000
  H   H14       1.0  0.99376  0.21495  0.51309  1.0000
  H   H15       1.0  0.11647  0.18715  0.37519  1.0000
  H   H16       1.0  0.18674  0.11763  0.37648  1.0000
  H   H17       1.0  0.04489  0.04452  0.37652  1.0000
  H   H18       1.0  0.98045  0.97941  0.37601  1.0000
  H   H19       1.0  0.90574  0.18756  0.37162  1.0000
  H   H20       1.0  0.83594  0.11703  0.37270  1.0000
  H   H21       1.0  0.80980  0.99399  0.51323  1.0000
  H   H22       1.0  0.71637  0.99266  0.51190  1.0000
  H   H23       1.0  0.83861  0.90628  0.37461  1.0000
  H   H24       1.0  0.90882  0.83681  0.37856  1.0000
  H   H25       1.0  0.18937  0.90688  0.38035  1.0000
  H   H26       1.0  0.11959  0.83634  0.37919  1.0000
  H   H27       1.0  0.03113  0.80952  0.51942  1.0000
  H   H28       1.0  0.03070  0.71572  0.51940  1.0000
  H   H29       1.0  0.21489  0.03056  0.51906  1.0000
  H   H30       1.0  0.30870  0.03061  0.51927  1.0000
  N   N7        1.0  0.01306  0.65443  0.38501  1.0000
  N   N8        1.0  0.65519  0.01050  0.36475  1.0000
  N   N9        1.0  0.01143  0.36940  0.36447  1.0000
  N   N10       1.0  0.37016  0.01262  0.38523  1.0000
  C   C51       1.0  0.01270  0.49912  0.46586  1.0000
  N   N11       1.0  0.01253  0.54987  0.43854  1.0000
  C   C52       1.0  0.01125  0.45889  0.39977  1.0000
  H   H31       1.0  0.01384  0.49095  0.53404  1.0000
  C   C53       1.0  0.01114  0.40640  0.42402  1.0000
  H   H32       1.0  0.01135  0.39731  0.48985  1.0000
  C   C54       1.0  0.52549  0.01184  0.46621  1.0000
  N   N12       1.0  0.47474  0.01181  0.43889  1.0000
  C   C55       1.0  0.56572  0.01042  0.40011  1.0000
  H   H33       1.0  0.53366  0.01285  0.53439  1.0000
  C   C56       1.0  0.61821  0.01021  0.42434  1.0000
  H   H34       1.0  0.62732  0.01036  0.49017  1.0000
