data_image0
_chemical_formula_structural       C3H2CH2C4OHOHC4OHOHC4OHOHC2O2H2C2O2H2C2O2H2C20H11C24H15C24H15C24H15C2O2H2C2O2H2C2O2H2C4OHOHC4OHOHC4OHOH
_chemical_formula_sum              "C132 H84 O24"
_cell_length_a       45.7858
_cell_length_b       45.7858
_cell_length_c       14.9507
_cell_angle_alpha    90
_cell_angle_beta     90
_cell_angle_gamma    120

_space_group_name_H-M_alt    "P 1"
_space_group_IT_number       1

loop_
  _space_group_symop_operation_xyz
  'x, y, z'

loop_
  _atom_site_type_symbol
  _atom_site_label
  _atom_site_symmetry_multiplicity
  _atom_site_fract_x
  _atom_site_fract_y
  _atom_site_fract_z
  _atom_site_occupancy
  C   C1        1.0  0.01408  0.03281  0.33736  1.0000
  C   C2        1.0  0.03216  0.01517  0.33505  1.0000
  C   C3        1.0  0.01332  0.97947  0.33259  1.0000
  H   H1        1.0  0.02720  0.05856  0.34253  1.0000
  H   H2        1.0  0.02594  0.96628  0.33131  1.0000
  C   C4        1.0  0.06835  0.03297  0.33617  1.0000
  H   H3        1.0  0.07405  0.00132  0.43029  1.0000
  H   H4        1.0  0.07531  0.07091  0.24246  1.0000
  C   C5        1.0  0.24884  0.12449  0.34310  1.0000
  C   C6        1.0  0.23096  0.11027  0.26257  1.0000
  C   C7        1.0  0.19532  0.09150  0.26210  1.0000
  C   C8        1.0  0.17669  0.08736  0.34149  1.0000
  O   O1        1.0  0.17937  0.07765  0.18335  1.0000
  H   H5        1.0  0.17484  0.05426  0.18327  1.0000
  O   O2        1.0  0.24793  0.11238  0.18562  1.0000
  H   H6        1.0  0.24613  0.12882  0.14703  1.0000
  C   C9        1.0  0.86862  0.12330  0.34230  1.0000
  C   C10       1.0  0.87382  0.11006  0.26191  1.0000
  C   C11       1.0  0.89207  0.09265  0.26193  1.0000
  C   C12       1.0  0.90577  0.08805  0.34232  1.0000
  O   O3        1.0  0.89581  0.08012  0.18273  1.0000
  H   H7        1.0  0.87769  0.05640  0.18045  1.0000
  O   O4        1.0  0.86109  0.11349  0.18268  1.0000
  H   H8        1.0  0.83760  0.09488  0.18002  1.0000
  C   C13       1.0  0.86784  0.74450  0.33481  1.0000
  C   C14       1.0  0.87243  0.76242  0.25382  1.0000
  C   C15       1.0  0.88969  0.79809  0.25311  1.0000
  C   C16       1.0  0.90393  0.81676  0.33265  1.0000
  O   O5        1.0  0.89220  0.81402  0.17405  1.0000
  H   H9        1.0  0.87343  0.81868  0.17307  1.0000
  O   O6        1.0  0.85790  0.74547  0.17661  1.0000
  H   H10       1.0  0.87626  0.74705  0.13900  1.0000
  C   C17       1.0  0.54754  0.13339  0.26120  1.0000
  C   C18       1.0  0.57841  0.13344  0.26114  1.0000
  O   O7        1.0  0.52734  0.12113  0.18772  1.0000
  O   O8        1.0  0.58638  0.12122  0.18766  1.0000
  H   H11       1.0  0.50886  0.09863  0.20434  1.0000
  H   H12       1.0  0.58194  0.09854  0.20386  1.0000
  C   C19       1.0  0.85866  0.41390  0.27682  1.0000
  C   C20       1.0  0.85866  0.44474  0.27681  1.0000
  O   O9        1.0  0.87196  0.40649  0.20462  1.0000
  O   O10       1.0  0.87193  0.46546  0.20460  1.0000
  H   H13       1.0  0.89428  0.41056  0.22337  1.0000
  H   H14       1.0  0.89419  0.48382  0.22345  1.0000
  C   C21       1.0  0.57755  0.44578  0.26803  1.0000
  C   C22       1.0  0.54680  0.41488  0.26864  1.0000
  O   O11       1.0  0.58510  0.46603  0.19476  1.0000
  O   O12       1.0  0.52624  0.40688  0.19589  1.0000
  H   H15       1.0  0.58092  0.48435  0.21197  1.0000
  H   H16       1.0  0.50765  0.41058  0.21365  1.0000
  C   C23       1.0  0.97840  0.01596  0.33702  1.0000
  C   C24       1.0  0.97760  0.96142  0.33239  1.0000
  C   C25       1.0  0.96076  0.98027  0.33430  1.0000
  C   C26       1.0  0.08725  0.06233  0.28368  1.0000
  C   C27       1.0  0.12275  0.08014  0.28542  1.0000
  C   C28       1.0  0.14070  0.06925  0.33992  1.0000
  C   C29       1.0  0.12205  0.03989  0.39209  1.0000
  C   C30       1.0  0.08654  0.02208  0.39013  1.0000
  C   C31       1.0  0.96065  0.03436  0.33949  1.0000
  C   C32       1.0  0.97060  0.06317  0.28514  1.0000
  C   C33       1.0  0.95275  0.08085  0.28635  1.0000
  C   C34       1.0  0.92429  0.07047  0.34217  1.0000
  C   C35       1.0  0.91446  0.04190  0.39713  1.0000
  C   C36       1.0  0.93228  0.02420  0.39578  1.0000
  C   C37       1.0  0.95900  0.92523  0.33139  1.0000
  C   C38       1.0  0.93046  0.90695  0.38711  1.0000
  C   C39       1.0  0.91231  0.87145  0.38719  1.0000
  C   C40       1.0  0.92203  0.85280  0.33156  1.0000
  C   C41       1.0  0.95042  0.87089  0.27554  1.0000
  C   C42       1.0  0.96855  0.90641  0.27555  1.0000
  H   H17       1.0  0.96082  0.10154  0.24598  1.0000
  H   H18       1.0  0.99063  0.07120  0.24238  1.0000
  H   H19       1.0  0.89383  0.03338  0.43792  1.0000
  H   H20       1.0  0.92440  0.00382  0.43720  1.0000
  H   H21       1.0  0.92288  0.91935  0.42980  1.0000
  H   H22       1.0  0.89178  0.85927  0.42833  1.0000
  H   H23       1.0  0.98870  0.91844  0.23319  1.0000
  H   H24       1.0  0.95840  0.85828  0.23484  1.0000
  H   H25       1.0  0.13422  0.03110  0.43175  1.0000
  H   H26       1.0  0.13543  0.10135  0.24687  1.0000
  H   H27       1.0  0.93496  0.96770  0.33107  1.0000
  C   C43       1.0  0.44734  0.25075  0.32978  1.0000
  C   C44       1.0  0.41186  0.23282  0.33808  1.0000
  C   C45       1.0  0.39326  0.19704  0.33959  1.0000
  C   C46       1.0  0.41135  0.17938  0.33479  1.0000
  C   C47       1.0  0.44686  0.19658  0.32662  1.0000
  C   C48       1.0  0.46432  0.23218  0.32509  1.0000
  C   C49       1.0  0.35714  0.17927  0.34240  1.0000
  C   C50       1.0  0.33839  0.18951  0.28853  1.0000
  C   C51       1.0  0.30291  0.17173  0.28934  1.0000
  C   C52       1.0  0.28482  0.14295  0.34394  1.0000
  C   C53       1.0  0.30336  0.13274  0.39842  1.0000
  C   C54       1.0  0.33888  0.15055  0.39748  1.0000
  C   C55       1.0  0.46633  0.28664  0.32569  1.0000
  C   C56       1.0  0.46404  0.30684  0.39384  1.0000
  C   C57       1.0  0.48686  0.34184  0.39668  1.0000
  C   C58       1.0  0.51227  0.35760  0.33092  1.0000
  C   C59       1.0  0.51344  0.33761  0.26049  1.0000
  C   C60       1.0  0.49079  0.30274  0.25781  1.0000
  C   C61       1.0  0.46556  0.17940  0.32021  1.0000
  C   C62       1.0  0.49014  0.18828  0.25240  1.0000
  C   C63       1.0  0.51311  0.17641  0.25454  1.0000
  C   C64       1.0  0.51208  0.15501  0.32413  1.0000
  C   C65       1.0  0.48644  0.14474  0.38951  1.0000
  C   C66       1.0  0.46338  0.15664  0.38740  1.0000
  H   H28       1.0  0.48577  0.35550  0.44945  1.0000
  H   H29       1.0  0.44732  0.29591  0.44542  1.0000
  H   H30       1.0  0.53212  0.34791  0.21325  1.0000
  H   H31       1.0  0.49336  0.28892  0.20775  1.0000
  H   H32       1.0  0.49279  0.20505  0.20336  1.0000
  H   H33       1.0  0.53192  0.18526  0.20761  1.0000
  H   H34       1.0  0.44661  0.15050  0.43901  1.0000
  H   H35       1.0  0.48544  0.12982  0.44178  1.0000
  H   H36       1.0  0.35133  0.14243  0.43829  1.0000
  H   H37       1.0  0.29109  0.11188  0.43839  1.0000
  H   H38       1.0  0.29034  0.18001  0.24945  1.0000
  H   H39       1.0  0.35040  0.20970  0.24629  1.0000
  H   H40       1.0  0.39941  0.24615  0.34190  1.0000
  H   H41       1.0  0.49016  0.24496  0.32203  1.0000
  H   H42       1.0  0.39847  0.15356  0.33329  1.0000
  C   C67       1.0  0.74215  0.19550  0.32632  1.0000
  C   C68       1.0  0.76043  0.17822  0.33350  1.0000
  C   C69       1.0  0.79621  0.19576  0.33822  1.0000
  C   C70       1.0  0.81341  0.23159  0.33778  1.0000
  C   C71       1.0  0.79589  0.24963  0.33069  1.0000
  C   C72       1.0  0.76036  0.23110  0.32599  1.0000
  C   C73       1.0  0.81448  0.17781  0.34043  1.0000
  C   C74       1.0  0.80376  0.14873  0.39428  1.0000
  C   C75       1.0  0.82150  0.13092  0.39526  1.0000
  C   C76       1.0  0.85059  0.14138  0.34194  1.0000
  C   C77       1.0  0.86138  0.17036  0.28802  1.0000
  C   C78       1.0  0.84369  0.18819  0.28732  1.0000
  C   C79       1.0  0.70627  0.17853  0.31988  1.0000
  C   C80       1.0  0.68556  0.15586  0.38705  1.0000
  C   C81       1.0  0.65067  0.14441  0.38949  1.0000
  C   C82       1.0  0.63546  0.15491  0.32422  1.0000
  C   C83       1.0  0.65595  0.17625  0.25468  1.0000
  C   C84       1.0  0.69071  0.18776  0.25240  1.0000
  C   C85       1.0  0.81258  0.28557  0.32802  1.0000
  C   C86       1.0  0.80437  0.30188  0.26035  1.0000
  C   C87       1.0  0.81578  0.33659  0.26490  1.0000
  C   C88       1.0  0.83597  0.35628  0.33709  1.0000
  C   C89       1.0  0.84541  0.34033  0.40286  1.0000
  C   C90       1.0  0.83402  0.30548  0.39820  1.0000
  H   H43       1.0  0.63667  0.12948  0.44162  1.0000
  H   H44       1.0  0.69608  0.14955  0.43857  1.0000
  H   H45       1.0  0.64614  0.18532  0.20795  1.0000
  H   H46       1.0  0.70494  0.20453  0.20346  1.0000
  H   H47       1.0  0.78851  0.28825  0.20918  1.0000
  H   H48       1.0  0.80748  0.34693  0.21758  1.0000
  H   H49       1.0  0.83967  0.29439  0.44966  1.0000
  H   H50       1.0  0.85953  0.35374  0.45678  1.0000
  H   H51       1.0  0.85211  0.20863  0.24591  1.0000
  H   H52       1.0  0.88243  0.17888  0.24886  1.0000
  H   H53       1.0  0.81274  0.10991  0.43472  1.0000
  H   H54       1.0  0.78304  0.14041  0.43459  1.0000
  H   H55       1.0  0.74741  0.15241  0.33123  1.0000
  H   H56       1.0  0.74732  0.24391  0.32380  1.0000
  H   H57       1.0  0.83919  0.24490  0.34173  1.0000
  C   C91       1.0  0.79528  0.54566  0.33106  1.0000
  C   C92       1.0  0.81291  0.58122  0.33729  1.0000
  C   C93       1.0  0.79579  0.59991  0.33741  1.0000
  C   C94       1.0  0.76002  0.58179  0.33342  1.0000
  C   C95       1.0  0.74166  0.54623  0.32744  1.0000
  C   C96       1.0  0.75973  0.52870  0.32709  1.0000
  C   C97       1.0  0.81408  0.63607  0.33826  1.0000
  C   C98       1.0  0.84309  0.65453  0.28423  1.0000
  C   C99       1.0  0.86070  0.69002  0.28322  1.0000
  C   C100      1.0  0.84993  0.70847  0.33608  1.0000
  C   C101      1.0  0.82109  0.69023  0.39047  1.0000
  C   C102      1.0  0.80349  0.65471  0.39139  1.0000
  C   C103      1.0  0.81198  0.52644  0.32841  1.0000
  C   C104      1.0  0.83378  0.52833  0.39801  1.0000
  C   C105      1.0  0.84540  0.50506  0.40251  1.0000
  C   C106      1.0  0.83587  0.47957  0.33701  1.0000
  C   C107      1.0  0.81532  0.47872  0.26532  1.0000
  C   C108      1.0  0.80364  0.50180  0.26104  1.0000
  C   C109      1.0  0.70579  0.52756  0.32217  1.0000
  C   C110      1.0  0.68978  0.50269  0.25518  1.0000
  C   C111      1.0  0.65496  0.47980  0.25846  1.0000
  C   C112      1.0  0.63497  0.48111  0.32866  1.0000
  C   C113      1.0  0.65063  0.50691  0.39349  1.0000
  C   C114      1.0  0.68557  0.52998  0.39001  1.0000
  H   H58       1.0  0.85978  0.50599  0.45604  1.0000
  H   H59       1.0  0.83955  0.54520  0.44919  1.0000
  H   H60       1.0  0.80694  0.45997  0.21831  1.0000
  H   H61       1.0  0.78755  0.49936  0.21024  1.0000
  H   H62       1.0  0.70368  0.49990  0.20573  1.0000
  H   H63       1.0  0.64474  0.46083  0.21199  1.0000
  H   H64       1.0  0.69647  0.54694  0.44112  1.0000
  H   H65       1.0  0.63697  0.50811  0.44610  1.0000
  H   H66       1.0  0.78291  0.64254  0.43231  1.0000
  H   H67       1.0  0.81245  0.70273  0.42936  1.0000
  H   H68       1.0  0.88165  0.70233  0.24359  1.0000
  H   H69       1.0  0.85137  0.64226  0.24330  1.0000
  H   H70       1.0  0.83870  0.59365  0.34063  1.0000
  H   H71       1.0  0.74661  0.50284  0.32548  1.0000
  H   H72       1.0  0.74706  0.59465  0.33099  1.0000
  C   C115      1.0  0.19455  0.10150  0.42207  1.0000
  C   C116      1.0  0.23021  0.12031  0.42254  1.0000
  O   O13       1.0  0.17754  0.09935  0.49892  1.0000
  O   O14       1.0  0.24618  0.13431  0.50117  1.0000
  H   H73       1.0  0.17896  0.08256  0.53693  1.0000
  H   H74       1.0  0.25057  0.15765  0.50109  1.0000
  C   C117      1.0  0.90044  0.10118  0.42278  1.0000
  C   C118      1.0  0.88210  0.11850  0.42278  1.0000
  O   O15       1.0  0.91324  0.09785  0.50199  1.0000
  O   O16       1.0  0.87812  0.13087  0.50196  1.0000
  H   H75       1.0  0.93670  0.11653  0.50458  1.0000
  H   H76       1.0  0.89646  0.15448  0.50517  1.0000
  C   C119      1.0  0.89979  0.79878  0.41334  1.0000
  C   C120      1.0  0.88189  0.76314  0.41447  1.0000
  O   O17       1.0  0.91313  0.81533  0.49175  1.0000
  O   O18       1.0  0.87874  0.74720  0.49392  1.0000
  H   H77       1.0  0.93674  0.82056  0.49275  1.0000
  H   H78       1.0  0.89722  0.74211  0.49596  1.0000
  C   C121      1.0  0.60161  0.14824  0.33270  1.0000
  C   C122      1.0  0.59224  0.16105  0.40694  1.0000
  C   C123      1.0  0.56134  0.16102  0.40696  1.0000
  C   C124      1.0  0.53914  0.14818  0.33277  1.0000
  O   O19       1.0  0.55557  0.17772  0.47399  1.0000
  H   H79       1.0  0.54658  0.16191  0.52458  1.0000
  O   O20       1.0  0.61470  0.17774  0.47397  1.0000
  H   H80       1.0  0.60783  0.16195  0.52464  1.0000
  C   C125      1.0  0.84278  0.45259  0.34671  1.0000
  C   C126      1.0  0.82894  0.42991  0.41965  1.0000
  C   C127      1.0  0.82894  0.39901  0.41963  1.0000
  C   C128      1.0  0.84277  0.39015  0.34669  1.0000
  O   O21       1.0  0.81127  0.37609  0.48491  1.0000
  H   H81       1.0  0.82637  0.38248  0.53699  1.0000
  O   O22       1.0  0.81130  0.43520  0.48494  1.0000
  H   H82       1.0  0.82649  0.44409  0.53681  1.0000
  C   C129      1.0  0.53898  0.39160  0.33970  1.0000
  C   C130      1.0  0.56154  0.40093  0.41306  1.0000
  C   C131      1.0  0.59232  0.43190  0.41248  1.0000
  C   C132      1.0  0.60115  0.45415  0.33854  1.0000
  O   O23       1.0  0.61521  0.43764  0.47828  1.0000
  H   H83       1.0  0.60871  0.44661  0.52959  1.0000
  O   O24       1.0  0.55634  0.37837  0.47935  1.0000
  H   H84       1.0  0.54744  0.38491  0.53074  1.0000
