data_image0
_chemical_formula_structural       C8H12C6H2NH2NO2NHC6H2NH2NO2NHC3NC3NC5NC5NC20H18CHCHCHCHC2HC4HNH2NO2NHC2HC4HNH2NO2NH
_chemical_formula_sum              "C72 H54 N16 O8"
_cell_length_a       29.6328
_cell_length_b       29.6345
_cell_length_c       15.0171
_cell_angle_alpha    90
_cell_angle_beta     90
_cell_angle_gamma    90.0321

_space_group_name_H-M_alt    "P 1"
_space_group_IT_number       1

loop_
  _space_group_symop_operation_xyz
  'x, y, z'

loop_
  _atom_site_type_symbol
  _atom_site_label
  _atom_site_symmetry_multiplicity
  _atom_site_fract_x
  _atom_site_fract_y
  _atom_site_fract_z
  _atom_site_occupancy
  C   C1        1.0  0.76432  0.96305  0.24123  1.0000
  C   C2        1.0  0.81124  0.96951  0.24585  1.0000
  C   C3        1.0  0.96485  0.23126  0.24027  1.0000
  C   C4        1.0  0.97100  0.18430  0.24484  1.0000
  C   C5        1.0  0.18982  0.02537  0.28582  1.0000
  C   C6        1.0  0.23693  0.02867  0.29534  1.0000
  C   C7        1.0  0.02551  0.80529  0.28675  1.0000
  C   C8        1.0  0.02823  0.75818  0.29660  1.0000
  H   H1        1.0  0.03762  0.73904  0.24299  1.0000
  H   H2        1.0  0.03293  0.81947  0.22633  1.0000
  H   H3        1.0  0.17558  0.03149  0.22490  1.0000
  H   H4        1.0  0.25597  0.03722  0.24103  1.0000
  H   H5        1.0  0.96742  0.16545  0.18813  1.0000
  H   H6        1.0  0.95739  0.24557  0.18003  1.0000
  H   H7        1.0  0.83031  0.96477  0.18976  1.0000
  H   H8        1.0  0.75024  0.95421  0.18151  1.0000
  H   H9        1.0  0.94511  0.31717  0.25205  1.0000
  H   H10       1.0  0.67800  0.94533  0.25191  1.0000
  H   H11       1.0  0.05392  0.67715  0.37977  1.0000
  H   H12       1.0  0.31797  0.05621  0.37705  1.0000
  C   C9        1.0  0.00719  0.37842  0.31186  1.0000
  C   C10       1.0  0.99517  0.40379  0.23555  1.0000
  C   C11       1.0  0.99455  0.45135  0.24123  1.0000
  C   C12       1.0  0.00707  0.47414  0.32017  1.0000
  C   C13       1.0  0.03279  0.54938  0.26496  1.0000
  C   C14       1.0  0.02589  0.59661  0.26482  1.0000
  H   H13       1.0  0.04595  0.61675  0.22598  1.0000
  H   H14       1.0  0.98517  0.46946  0.18613  1.0000
  N   N1        1.0  0.06660  0.53219  0.21380  1.0000
  H   H15       1.0  0.07445  0.50039  0.21520  1.0000
  H   H16       1.0  0.08590  0.55172  0.17816  1.0000
  N   N2        1.0  0.98496  0.38118  0.15507  1.0000
  O   O1        1.0  0.01234  0.39166  0.09459  1.0000
  O   O2        1.0  0.94571  0.39013  0.12875  1.0000
  N   N3        1.0  0.00864  0.33067  0.31305  1.0000
  H   H17       1.0  0.02851  0.31954  0.26145  1.0000
  C   C15       1.0  0.61708  0.00763  0.31199  1.0000
  C   C16       1.0  0.59156  0.99575  0.23578  1.0000
  C   C17       1.0  0.54401  0.99540  0.24163  1.0000
  C   C18       1.0  0.52137  0.00805  0.32065  1.0000
  C   C19       1.0  0.44626  0.03415  0.26561  1.0000
  C   C20       1.0  0.39900  0.02744  0.26544  1.0000
  H   H18       1.0  0.37896  0.04754  0.22651  1.0000
  H   H19       1.0  0.52578  0.98613  0.18658  1.0000
  N   N4        1.0  0.46364  0.06788  0.21444  1.0000
  H   H20       1.0  0.49548  0.07561  0.21587  1.0000
  H   H21       1.0  0.44422  0.08727  0.17880  1.0000
  N   N5        1.0  0.61405  0.98542  0.15522  1.0000
  O   O3        1.0  0.60372  0.01286  0.09478  1.0000
  O   O4        1.0  0.60483  0.94623  0.12893  1.0000
  N   N6        1.0  0.66482  0.00886  0.31296  1.0000
  H   H22       1.0  0.67602  0.02869  0.26132  1.0000
  C   C21       1.0  0.92476  0.87377  0.34274  1.0000
  C   C22       1.0  0.88895  0.90335  0.33826  1.0000
  C   C23       1.0  0.90613  0.94728  0.33622  1.0000
  N   N7        1.0  0.95159  0.94268  0.33993  1.0000
  C   C24       1.0  0.96467  0.89893  0.34453  1.0000
  C   C25       1.0  0.00883  0.88030  0.34986  1.0000
  C   C26       1.0  0.04936  0.90582  0.34978  1.0000
  N   N8        1.0  0.05377  0.95117  0.34673  1.0000
  C   C27       1.0  0.09746  0.96408  0.34972  1.0000
  C   C28       1.0  0.12274  0.92433  0.35362  1.0000
  C   C29       1.0  0.09309  0.88846  0.35462  1.0000
  C   C30       1.0  0.11496  0.00871  0.34987  1.0000
  C   C31       1.0  0.08840  0.04862  0.34477  1.0000
  N   N9        1.0  0.04297  0.05324  0.33919  1.0000
  C   C32       1.0  0.02977  0.09702  0.33652  1.0000
  C   C33       1.0  0.06965  0.12218  0.33933  1.0000
  C   C34       1.0  0.10546  0.09260  0.34549  1.0000
  C   C35       1.0  0.98556  0.11555  0.33172  1.0000
  C   C36       1.0  0.94504  0.08996  0.33054  1.0000
  N   N10       1.0  0.94064  0.04462  0.33324  1.0000
  C   C37       1.0  0.89692  0.03174  0.33093  1.0000
  C   C38       1.0  0.87158  0.07139  0.32643  1.0000
  C   C39       1.0  0.90122  0.10728  0.32690  1.0000
  C   C40       1.0  0.87951  0.98713  0.33196  1.0000
  C   C41       1.0  0.83182  0.98194  0.32706  1.0000
  C   C42       1.0  0.80462  0.98830  0.40328  1.0000
  C   C43       1.0  0.75757  0.98254  0.39811  1.0000
  C   C44       1.0  0.73694  0.96938  0.31731  1.0000
  C   C45       1.0  0.98125  0.16335  0.32686  1.0000
  C   C46       1.0  0.98590  0.19030  0.40393  1.0000
  C   C47       1.0  0.98054  0.23739  0.39886  1.0000
  C   C48       1.0  0.96933  0.25835  0.31725  1.0000
  C   C49       1.0  0.16257  0.01354  0.35938  1.0000
  C   C50       1.0  0.25793  0.01892  0.37771  1.0000
  C   C51       1.0  0.23048  0.00738  0.45125  1.0000
  C   C52       1.0  0.18332  0.00513  0.44246  1.0000
  C   C53       1.0  0.01262  0.83265  0.35942  1.0000
  C   C54       1.0  0.00249  0.81206  0.44189  1.0000
  C   C55       1.0  0.00426  0.76489  0.45098  1.0000
  C   C56       1.0  0.01694  0.73732  0.37836  1.0000
  H   H23       1.0  0.99620  0.75086  0.51117  1.0000
  H   H24       1.0  0.99300  0.83122  0.49545  1.0000
  H   H25       1.0  0.92149  0.83945  0.34454  1.0000
  H   H26       1.0  0.85584  0.89368  0.33698  1.0000
  H   H27       1.0  0.97222  0.96765  0.34007  1.0000
  H   H28       1.0  0.02238  0.02824  0.33748  1.0000
  H   H29       1.0  0.10249  0.85534  0.35835  1.0000
  H   H30       1.0  0.15706  0.92128  0.35637  1.0000
  H   H31       1.0  0.16427  0.99640  0.49669  1.0000
  H   H32       1.0  0.24461  0.00044  0.51189  1.0000
  H   H33       1.0  0.13848  0.10232  0.34967  1.0000
  H   H34       1.0  0.07284  0.15652  0.33864  1.0000
  H   H35       1.0  0.83725  0.07433  0.32359  1.0000
  H   H36       1.0  0.89175  0.14042  0.32469  1.0000
  H   H37       1.0  0.99325  0.17582  0.46411  1.0000
  H   H38       1.0  0.98428  0.25628  0.45544  1.0000
  H   H39       1.0  0.73846  0.98761  0.45398  1.0000
  H   H40       1.0  0.81886  0.99729  0.46281  1.0000
  C   C57       1.0  0.96388  0.30808  0.31207  1.0000
  H   H41       1.0  0.94378  0.31948  0.36891  1.0000
  C   C58       1.0  0.68720  0.96402  0.31198  1.0000
  H   H42       1.0  0.67577  0.94396  0.36884  1.0000
  C   C59       1.0  0.01867  0.68743  0.38719  1.0000
  H   H43       1.0  0.00745  0.67669  0.45334  1.0000
  C   C60       1.0  0.30785  0.02101  0.38620  1.0000
  H   H44       1.0  0.31871  0.01066  0.45282  1.0000
  C   C61       1.0  0.02023  0.44869  0.39634  1.0000
  C   C62       1.0  0.01977  0.40102  0.39058  1.0000
  H   H45       1.0  0.02909  0.38217  0.44471  1.0000
  C   C63       1.0  0.00469  0.52212  0.32005  1.0000
  C   C64       1.0  0.99332  0.61720  0.31970  1.0000
  C   C65       1.0  0.96575  0.59017  0.37518  1.0000
  C   C66       1.0  0.97129  0.54282  0.37348  1.0000
  H   H46       1.0  0.95064  0.52336  0.41248  1.0000
  N   N11       1.0  0.03404  0.46814  0.47383  1.0000
  H   H47       1.0  0.04344  0.44996  0.52454  1.0000
  H   H48       1.0  0.03691  0.50063  0.48005  1.0000
  N   N12       1.0  0.93313  0.61113  0.43008  1.0000
  O   O5        1.0  0.89392  0.59826  0.41078  1.0000
  O   O6        1.0  0.94025  0.60289  0.51095  1.0000
  N   N13       1.0  0.99090  0.66490  0.31785  1.0000
  H   H49       1.0  0.95796  0.67565  0.31944  1.0000
  C   C67       1.0  0.54699  0.02105  0.39674  1.0000
  C   C68       1.0  0.59465  0.02033  0.39080  1.0000
  H   H50       1.0  0.61362  0.02954  0.44486  1.0000
  C   C69       1.0  0.47338  0.00594  0.32069  1.0000
  C   C70       1.0  0.37822  0.99494  0.32028  1.0000
  C   C71       1.0  0.40512  0.96728  0.37582  1.0000
  C   C72       1.0  0.45249  0.97265  0.37415  1.0000
  H   H51       1.0  0.47185  0.95191  0.41315  1.0000
  N   N14       1.0  0.52769  0.03495  0.47431  1.0000
  H   H52       1.0  0.54599  0.04425  0.52495  1.0000
  H   H53       1.0  0.49523  0.03801  0.48066  1.0000
  N   N15       1.0  0.38401  0.93476  0.43076  1.0000
  O   O7        1.0  0.39671  0.89549  0.41152  1.0000
  O   O8        1.0  0.39226  0.94188  0.51162  1.0000
  N   N16       1.0  0.33051  0.99255  0.31814  1.0000
  H   H54       1.0  0.31964  0.95965  0.32083  1.0000
