data_image0
_chemical_formula_structural       C7H2C2O2C3NC2NHNHNHC3NC2NHNH2NHC5HC4H3C2O2C3H2CH3NHC3H2CH2NHC7H2C2O2C3NC2NHNHNHC3NC2NHNH2NHC5HC4H3C2O2C3H2CH3NHC3H2CH2NHC7H2C2O2C3NC2NHNHNHC3NC2NHNH2NHC5HC4H3C2O2C3H2CH3NHC3H2CH2NHC7H2C2O2C3NC2NHNHNHC3NC2NHNH2NHC5HC4H3C2O2C3H2CH3NHC3H2CH2NH
_chemical_formula_sum              "C152 H96 O16 N40"
_cell_length_a       30.7636
_cell_length_b       30.7636
_cell_length_c       15.0334
_cell_angle_alpha    90
_cell_angle_beta     90
_cell_angle_gamma    90

_space_group_name_H-M_alt    "P 1"
_space_group_IT_number       1

loop_
  _space_group_symop_operation_xyz
  'x, y, z'

loop_
  _atom_site_type_symbol
  _atom_site_label
  _atom_site_symmetry_multiplicity
  _atom_site_fract_x
  _atom_site_fract_y
  _atom_site_fract_z
  _atom_site_occupancy
  C   C1        1.0  0.05944  0.00156  0.28513  1.0000
  C   C2        1.0  0.09431  0.03029  0.26574  1.0000
  C   C3        1.0  0.08787  0.07519  0.27801  1.0000
  C   C4        1.0  0.48441  0.48827  0.33772  1.0000
  C   C5        1.0  0.40949  0.47583  0.39001  1.0000
  C   C6        1.0  0.44406  0.50470  0.37006  1.0000
  C   C7        1.0  0.43989  0.04976  0.38536  1.0000
  H   H1        1.0  0.09026  0.44411  0.23776  1.0000
  H   H2        1.0  0.41217  0.06246  0.41258  1.0000
  C   C8        1.0  0.13714  0.01620  0.24653  1.0000
  C   C9        1.0  0.36657  0.48973  0.40789  1.0000
  O   O1        1.0  0.16070  0.04168  0.19048  1.0000
  O   O2        1.0  0.34886  0.47017  0.48020  1.0000
  C   C10       1.0  0.47944  0.27857  0.25538  1.0000
  C   C11       1.0  0.48445  0.23301  0.24275  1.0000
  C   C12       1.0  0.50809  0.20744  0.30465  1.0000
  N   N1        1.0  0.46880  0.21537  0.16606  1.0000
  C   C13       1.0  0.44921  0.23870  0.10101  1.0000
  C   C14       1.0  0.44595  0.28405  0.11075  1.0000
  N   N2        1.0  0.46108  0.30162  0.18776  1.0000
  H   H3        1.0  0.43839  0.22342  0.04489  1.0000
  N   N3        1.0  0.42700  0.31011  0.04358  1.0000
  H   H4        1.0  0.41835  0.33972  0.06975  1.0000
  N   N4        1.0  0.51300  0.16361  0.29236  1.0000
  H   H5        1.0  0.49275  0.14925  0.25199  1.0000
  C   C15       1.0  0.23005  0.48144  0.23991  1.0000
  C   C16       1.0  0.27607  0.48434  0.24662  1.0000
  C   C17       1.0  0.29646  0.49438  0.32911  1.0000
  N   N5        1.0  0.29962  0.47451  0.17246  1.0000
  C   C18       1.0  0.28186  0.46219  0.09386  1.0000
  C   C19       1.0  0.23646  0.45803  0.08815  1.0000
  N   N6        1.0  0.21267  0.46765  0.16167  1.0000
  H   H6        1.0  0.30146  0.45476  0.04116  1.0000
  N   N7        1.0  0.21669  0.44277  0.00959  1.0000
  H   H7        1.0  0.20124  0.41403  0.02387  1.0000
  H   H8        1.0  0.15743  0.97898  0.01567  1.0000
  N   N8        1.0  0.34089  0.49643  0.33478  1.0000
  H   H9        1.0  0.35634  0.49945  0.27825  1.0000
  C   C20       1.0  0.01894  0.01796  0.31683  1.0000
  C   C21       1.0  0.04839  0.09297  0.30908  1.0000
  C   C22       1.0  0.01352  0.06381  0.32880  1.0000
  C   C23       1.0  0.06298  0.45671  0.26697  1.0000
  C   C24       1.0  0.47404  0.07833  0.36688  1.0000
  H   H10       1.0  0.11339  0.09568  0.26519  1.0000
  C   C25       1.0  0.48951  0.44245  0.32414  1.0000
  C   C26       1.0  0.45458  0.41321  0.34334  1.0000
  C   C27       1.0  0.41520  0.43108  0.37461  1.0000
  C   C28       1.0  0.02861  0.42825  0.28400  1.0000
  H   H11       1.0  0.38939  0.41089  0.38732  1.0000
  H   H12       1.0  0.03278  0.39691  0.26383  1.0000
  H   H13       1.0  0.46939  0.11009  0.38377  1.0000
  C   C29       1.0  0.04694  0.13878  0.32111  1.0000
  C   C30       1.0  0.45584  0.36741  0.33044  1.0000
  O   O3        1.0  0.08495  0.15973  0.33818  1.0000
  O   O4        1.0  0.41766  0.34570  0.31995  1.0000
  C   C31       1.0  0.99622  0.29938  0.33253  1.0000
  C   C32       1.0  0.02613  0.22904  0.37924  1.0000
  C   C33       1.0  0.02103  0.27390  0.39199  1.0000
  H   H14       1.0  0.03353  0.28747  0.44869  1.0000
  H   H15       1.0  0.04155  0.21191  0.42818  1.0000
  C   C34       1.0  0.45627  0.31806  0.63366  1.0000
  H   H16       1.0  0.46496  0.28754  0.60110  1.0000
  H   H17       1.0  0.98599  0.33469  0.65449  1.0000
  H   H18       1.0  0.43961  0.33840  0.58487  1.0000
  N   N9        1.0  0.99102  0.34257  0.35129  1.0000
  H   H19       1.0  0.01165  0.35575  0.39275  1.0000
  C   C35       1.0  0.20313  0.98985  0.31430  1.0000
  C   C36       1.0  0.26903  0.00090  0.40359  1.0000
  C   C37       1.0  0.22363  0.99793  0.39671  1.0000
  H   H20       1.0  0.20535  0.00584  0.45110  1.0000
  H   H21       1.0  0.28150  0.01077  0.46318  1.0000
  C   C38       1.0  0.18477  0.47330  0.63733  1.0000
  H   H22       1.0  0.20027  0.50436  0.62206  1.0000
  H   H23       1.0  0.17214  0.45958  0.57560  1.0000
  N   N10       1.0  0.15886  0.99273  0.30980  1.0000
  H   H24       1.0  0.14318  0.98737  0.36539  1.0000
  C   C39       1.0  0.05944  0.50156  0.28513  1.0000
  C   C40       1.0  0.09431  0.53029  0.26574  1.0000
  C   C41       1.0  0.08787  0.57519  0.27801  1.0000
  C   C42       1.0  0.48441  0.98827  0.33772  1.0000
  C   C43       1.0  0.40949  0.97582  0.39001  1.0000
  C   C44       1.0  0.44406  0.00470  0.37006  1.0000
  C   C45       1.0  0.43989  0.54975  0.38536  1.0000
  H   H25       1.0  0.09026  0.94410  0.23776  1.0000
  H   H26       1.0  0.41217  0.56246  0.41258  1.0000
  C   C46       1.0  0.13714  0.51620  0.24653  1.0000
  C   C47       1.0  0.36657  0.98974  0.40789  1.0000
  O   O5        1.0  0.16070  0.54168  0.19048  1.0000
  O   O6        1.0  0.34886  0.97017  0.48020  1.0000
  C   C48       1.0  0.47944  0.77857  0.25538  1.0000
  C   C49       1.0  0.48445  0.73301  0.24275  1.0000
  C   C50       1.0  0.50809  0.70744  0.30465  1.0000
  N   N11       1.0  0.46880  0.71537  0.16606  1.0000
  C   C51       1.0  0.44921  0.73869  0.10101  1.0000
  C   C52       1.0  0.44595  0.78405  0.11075  1.0000
  N   N12       1.0  0.46108  0.80162  0.18776  1.0000
  H   H27       1.0  0.43839  0.72342  0.04489  1.0000
  N   N13       1.0  0.42700  0.81011  0.04358  1.0000
  H   H28       1.0  0.41835  0.83972  0.06975  1.0000
  N   N14       1.0  0.51300  0.66361  0.29236  1.0000
  H   H29       1.0  0.49275  0.64925  0.25199  1.0000
  C   C53       1.0  0.23005  0.98144  0.23991  1.0000
  C   C54       1.0  0.27607  0.98433  0.24662  1.0000
  C   C55       1.0  0.29646  0.99438  0.32911  1.0000
  N   N15       1.0  0.29962  0.97451  0.17246  1.0000
  C   C56       1.0  0.28186  0.96219  0.09386  1.0000
  C   C57       1.0  0.23646  0.95804  0.08815  1.0000
  N   N16       1.0  0.21267  0.96765  0.16167  1.0000
  H   H30       1.0  0.30146  0.95476  0.04116  1.0000
  N   N17       1.0  0.21669  0.94277  0.00959  1.0000
  H   H31       1.0  0.20124  0.91403  0.02387  1.0000
  H   H32       1.0  0.15743  0.47898  0.01567  1.0000
  N   N18       1.0  0.34089  0.99643  0.33478  1.0000
  H   H33       1.0  0.35634  0.99946  0.27825  1.0000
  C   C58       1.0  0.01894  0.51796  0.31683  1.0000
  C   C59       1.0  0.04839  0.59297  0.30908  1.0000
  C   C60       1.0  0.01352  0.56381  0.32880  1.0000
  C   C61       1.0  0.06298  0.95671  0.26697  1.0000
  C   C62       1.0  0.47404  0.57833  0.36688  1.0000
  H   H34       1.0  0.11339  0.59568  0.26519  1.0000
  C   C63       1.0  0.48951  0.94246  0.32414  1.0000
  C   C64       1.0  0.45458  0.91320  0.34334  1.0000
  C   C65       1.0  0.41520  0.93108  0.37461  1.0000
  C   C66       1.0  0.02861  0.92825  0.28400  1.0000
  H   H35       1.0  0.38939  0.91088  0.38732  1.0000
  H   H36       1.0  0.03278  0.89691  0.26383  1.0000
  H   H37       1.0  0.46939  0.61009  0.38377  1.0000
  C   C67       1.0  0.04694  0.63877  0.32111  1.0000
  C   C68       1.0  0.45584  0.86742  0.33044  1.0000
  O   O7        1.0  0.08495  0.65973  0.33818  1.0000
  O   O8        1.0  0.41766  0.84570  0.31995  1.0000
  C   C69       1.0  0.99622  0.79938  0.33253  1.0000
  C   C70       1.0  0.02613  0.72904  0.37924  1.0000
  C   C71       1.0  0.02103  0.77390  0.39199  1.0000
  H   H38       1.0  0.03353  0.78747  0.44869  1.0000
  H   H39       1.0  0.04155  0.71191  0.42818  1.0000
  C   C72       1.0  0.45627  0.81806  0.63366  1.0000
  H   H40       1.0  0.46496  0.78754  0.60110  1.0000
  H   H41       1.0  0.98599  0.83469  0.65449  1.0000
  H   H42       1.0  0.43961  0.83840  0.58487  1.0000
  N   N19       1.0  0.99102  0.84257  0.35129  1.0000
  H   H43       1.0  0.01165  0.85575  0.39275  1.0000
  C   C73       1.0  0.20313  0.48985  0.31430  1.0000
  C   C74       1.0  0.26903  0.50090  0.40359  1.0000
  C   C75       1.0  0.22363  0.49793  0.39671  1.0000
  H   H44       1.0  0.20535  0.50584  0.45110  1.0000
  H   H45       1.0  0.28150  0.51077  0.46318  1.0000
  C   C76       1.0  0.18477  0.97330  0.63733  1.0000
  H   H46       1.0  0.20027  0.00436  0.62206  1.0000
  H   H47       1.0  0.17214  0.95958  0.57560  1.0000
  N   N20       1.0  0.15886  0.49273  0.30980  1.0000
  H   H48       1.0  0.14318  0.48737  0.36539  1.0000
  C   C77       1.0  0.55944  0.00156  0.28513  1.0000
  C   C78       1.0  0.59431  0.03029  0.26574  1.0000
  C   C79       1.0  0.58787  0.07519  0.27801  1.0000
  C   C80       1.0  0.98442  0.48827  0.33772  1.0000
  C   C81       1.0  0.90949  0.47583  0.39001  1.0000
  C   C82       1.0  0.94406  0.50470  0.37006  1.0000
  C   C83       1.0  0.93989  0.04976  0.38536  1.0000
  H   H49       1.0  0.59026  0.44411  0.23776  1.0000
  H   H50       1.0  0.91217  0.06246  0.41258  1.0000
  C   C84       1.0  0.63714  0.01620  0.24653  1.0000
  C   C85       1.0  0.86657  0.48973  0.40789  1.0000
  O   O9        1.0  0.66070  0.04168  0.19048  1.0000
  O   O10       1.0  0.84886  0.47017  0.48020  1.0000
  C   C86       1.0  0.97944  0.27857  0.25538  1.0000
  C   C87       1.0  0.98445  0.23301  0.24275  1.0000
  C   C88       1.0  0.00809  0.20744  0.30465  1.0000
  N   N21       1.0  0.96881  0.21537  0.16606  1.0000
  C   C89       1.0  0.94921  0.23870  0.10101  1.0000
  C   C90       1.0  0.94595  0.28405  0.11075  1.0000
  N   N22       1.0  0.96107  0.30162  0.18776  1.0000
  H   H51       1.0  0.93839  0.22342  0.04489  1.0000
  N   N23       1.0  0.92700  0.31011  0.04358  1.0000
  H   H52       1.0  0.91835  0.33972  0.06975  1.0000
  N   N24       1.0  0.01300  0.16361  0.29236  1.0000
  H   H53       1.0  0.99275  0.14925  0.25199  1.0000
  C   C91       1.0  0.73005  0.48144  0.23991  1.0000
  C   C92       1.0  0.77606  0.48434  0.24662  1.0000
  C   C93       1.0  0.79646  0.49438  0.32911  1.0000
  N   N25       1.0  0.79962  0.47451  0.17246  1.0000
  C   C94       1.0  0.78186  0.46219  0.09386  1.0000
  C   C95       1.0  0.73646  0.45803  0.08815  1.0000
  N   N26       1.0  0.71267  0.46765  0.16167  1.0000
  H   H54       1.0  0.80146  0.45476  0.04116  1.0000
  N   N27       1.0  0.71669  0.44277  0.00959  1.0000
  H   H55       1.0  0.70124  0.41403  0.02387  1.0000
  H   H56       1.0  0.65743  0.97898  0.01567  1.0000
  N   N28       1.0  0.84089  0.49643  0.33478  1.0000
  H   H57       1.0  0.85634  0.49945  0.27825  1.0000
  C   C96       1.0  0.51894  0.01796  0.31683  1.0000
  C   C97       1.0  0.54839  0.09297  0.30908  1.0000
  C   C98       1.0  0.51352  0.06381  0.32880  1.0000
  C   C99       1.0  0.56298  0.45671  0.26697  1.0000
  C   C100      1.0  0.97404  0.07833  0.36688  1.0000
  H   H58       1.0  0.61339  0.09568  0.26519  1.0000
  C   C101      1.0  0.98951  0.44245  0.32414  1.0000
  C   C102      1.0  0.95458  0.41321  0.34334  1.0000
  C   C103      1.0  0.91520  0.43108  0.37461  1.0000
  C   C104      1.0  0.52861  0.42825  0.28400  1.0000
  H   H59       1.0  0.88939  0.41089  0.38732  1.0000
  H   H60       1.0  0.53278  0.39691  0.26383  1.0000
  H   H61       1.0  0.96939  0.11009  0.38377  1.0000
  C   C105      1.0  0.54694  0.13878  0.32111  1.0000
  C   C106      1.0  0.95583  0.36741  0.33044  1.0000
  O   O11       1.0  0.58495  0.15973  0.33818  1.0000
  O   O12       1.0  0.91766  0.34570  0.31995  1.0000
  C   C107      1.0  0.49622  0.29938  0.33253  1.0000
  C   C108      1.0  0.52613  0.22904  0.37924  1.0000
  C   C109      1.0  0.52103  0.27390  0.39199  1.0000
  H   H62       1.0  0.53353  0.28747  0.44869  1.0000
  H   H63       1.0  0.54155  0.21191  0.42818  1.0000
  C   C110      1.0  0.95627  0.31806  0.63366  1.0000
  H   H64       1.0  0.96496  0.28754  0.60110  1.0000
  H   H65       1.0  0.48599  0.33469  0.65449  1.0000
  H   H66       1.0  0.93961  0.33840  0.58487  1.0000
  N   N29       1.0  0.49102  0.34257  0.35129  1.0000
  H   H67       1.0  0.51164  0.35575  0.39275  1.0000
  C   C111      1.0  0.70313  0.98985  0.31430  1.0000
  C   C112      1.0  0.76903  0.00090  0.40359  1.0000
  C   C113      1.0  0.72363  0.99793  0.39671  1.0000
  H   H68       1.0  0.70535  0.00584  0.45110  1.0000
  H   H69       1.0  0.78150  0.01077  0.46318  1.0000
  C   C114      1.0  0.68477  0.47330  0.63733  1.0000
  H   H70       1.0  0.70027  0.50436  0.62206  1.0000
  H   H71       1.0  0.67214  0.45958  0.57560  1.0000
  N   N30       1.0  0.65886  0.99273  0.30980  1.0000
  H   H72       1.0  0.64318  0.98737  0.36539  1.0000
  C   C115      1.0  0.55944  0.50156  0.28513  1.0000
  C   C116      1.0  0.59431  0.53029  0.26574  1.0000
  C   C117      1.0  0.58787  0.57519  0.27801  1.0000
  C   C118      1.0  0.98442  0.98827  0.33772  1.0000
  C   C119      1.0  0.90949  0.97582  0.39001  1.0000
  C   C120      1.0  0.94406  0.00470  0.37006  1.0000
  C   C121      1.0  0.93989  0.54975  0.38536  1.0000
  H   H73       1.0  0.59026  0.94410  0.23776  1.0000
  H   H74       1.0  0.91217  0.56246  0.41258  1.0000
  C   C122      1.0  0.63714  0.51620  0.24653  1.0000
  C   C123      1.0  0.86657  0.98974  0.40789  1.0000
  O   O13       1.0  0.66070  0.54168  0.19048  1.0000
  O   O14       1.0  0.84886  0.97017  0.48020  1.0000
  C   C124      1.0  0.97944  0.77857  0.25538  1.0000
  C   C125      1.0  0.98445  0.73301  0.24275  1.0000
  C   C126      1.0  0.00809  0.70744  0.30465  1.0000
  N   N31       1.0  0.96881  0.71537  0.16606  1.0000
  C   C127      1.0  0.94921  0.73869  0.10101  1.0000
  C   C128      1.0  0.94595  0.78405  0.11075  1.0000
  N   N32       1.0  0.96107  0.80162  0.18776  1.0000
  H   H75       1.0  0.93839  0.72342  0.04489  1.0000
  N   N33       1.0  0.92700  0.81011  0.04358  1.0000
  H   H76       1.0  0.91835  0.83972  0.06975  1.0000
  N   N34       1.0  0.01300  0.66361  0.29236  1.0000
  H   H77       1.0  0.99275  0.64925  0.25199  1.0000
  C   C129      1.0  0.73005  0.98144  0.23991  1.0000
  C   C130      1.0  0.77606  0.98433  0.24662  1.0000
  C   C131      1.0  0.79646  0.99438  0.32911  1.0000
  N   N35       1.0  0.79962  0.97451  0.17246  1.0000
  C   C132      1.0  0.78186  0.96219  0.09386  1.0000
  C   C133      1.0  0.73646  0.95804  0.08815  1.0000
  N   N36       1.0  0.71267  0.96765  0.16167  1.0000
  H   H78       1.0  0.80146  0.95476  0.04116  1.0000
  N   N37       1.0  0.71669  0.94277  0.00959  1.0000
  H   H79       1.0  0.70124  0.91403  0.02387  1.0000
  H   H80       1.0  0.65743  0.47898  0.01567  1.0000
  N   N38       1.0  0.84089  0.99643  0.33478  1.0000
  H   H81       1.0  0.85634  0.99946  0.27825  1.0000
  C   C134      1.0  0.51894  0.51796  0.31683  1.0000
  C   C135      1.0  0.54839  0.59297  0.30908  1.0000
  C   C136      1.0  0.51352  0.56381  0.32880  1.0000
  C   C137      1.0  0.56298  0.95671  0.26697  1.0000
  C   C138      1.0  0.97404  0.57833  0.36688  1.0000
  H   H82       1.0  0.61339  0.59568  0.26519  1.0000
  C   C139      1.0  0.98951  0.94246  0.32414  1.0000
  C   C140      1.0  0.95458  0.91320  0.34334  1.0000
  C   C141      1.0  0.91520  0.93108  0.37461  1.0000
  C   C142      1.0  0.52861  0.92825  0.28400  1.0000
  H   H83       1.0  0.88939  0.91088  0.38732  1.0000
  H   H84       1.0  0.53278  0.89691  0.26383  1.0000
  H   H85       1.0  0.96939  0.61009  0.38377  1.0000
  C   C143      1.0  0.54694  0.63877  0.32111  1.0000
  C   C144      1.0  0.95583  0.86742  0.33044  1.0000
  O   O15       1.0  0.58495  0.65973  0.33818  1.0000
  O   O16       1.0  0.91766  0.84570  0.31995  1.0000
  C   C145      1.0  0.49622  0.79938  0.33253  1.0000
  C   C146      1.0  0.52613  0.72904  0.37924  1.0000
  C   C147      1.0  0.52103  0.77390  0.39199  1.0000
  H   H86       1.0  0.53353  0.78747  0.44869  1.0000
  H   H87       1.0  0.54155  0.71191  0.42818  1.0000
  C   C148      1.0  0.95627  0.81806  0.63366  1.0000
  H   H88       1.0  0.96496  0.78754  0.60110  1.0000
  H   H89       1.0  0.48599  0.83469  0.65449  1.0000
  H   H90       1.0  0.93961  0.83840  0.58487  1.0000
  N   N39       1.0  0.49102  0.84257  0.35129  1.0000
  H   H91       1.0  0.51164  0.85575  0.39275  1.0000
  C   C149      1.0  0.70313  0.48985  0.31430  1.0000
  C   C150      1.0  0.76903  0.50090  0.40359  1.0000
  C   C151      1.0  0.72363  0.49793  0.39671  1.0000
  H   H92       1.0  0.70535  0.50584  0.45110  1.0000
  H   H93       1.0  0.78150  0.51077  0.46318  1.0000
  C   C152      1.0  0.68477  0.97330  0.63733  1.0000
  H   H94       1.0  0.70027  0.00436  0.62206  1.0000
  H   H95       1.0  0.67214  0.95958  0.57560  1.0000
  N   N40       1.0  0.65886  0.49273  0.30980  1.0000
  H   H96       1.0  0.64318  0.48737  0.36539  1.0000
