data_image0
_chemical_formula_structural       C8H8C4HC6HO2H2O2C16H4C2NCHNHC2NC3HC4NC3HC8H8C4HC6HO2H2O2C16H4C2NCHNHC2NC3HC4NC3HC8H8C4HC6HO2H2O2C16H4C2NCHNHC2NC3HC4NC3HC8H8C4HC6HO2H2O2C16H4C2NCHNHC2NC3HC4NC3H
_chemical_formula_sum              "C196 H80 O16 N16"
_cell_length_a       34.076
_cell_length_b       34.076
_cell_length_c       15.097
_cell_angle_alpha    90
_cell_angle_beta     90
_cell_angle_gamma    89.9983

_space_group_name_H-M_alt    "P 1"
_space_group_IT_number       1

loop_
  _space_group_symop_operation_xyz
  'x, y, z'

loop_
  _atom_site_type_symbol
  _atom_site_label
  _atom_site_symmetry_multiplicity
  _atom_site_fract_x
  _atom_site_fract_y
  _atom_site_fract_z
  _atom_site_occupancy
  C   C1        1.0  0.99762  0.47666  0.28503  1.0000
  C   C2        1.0  0.99584  0.01709  0.28516  1.0000
  C   C3        1.0  0.99480  0.09929  0.31462  1.0000
  C   C4        1.0  0.98641  0.08244  0.23012  1.0000
  C   C5        1.0  0.98888  0.04220  0.21392  1.0000
  C   C6        1.0  0.00408  0.45162  0.21345  1.0000
  C   C7        1.0  0.00643  0.41135  0.22925  1.0000
  C   C8        1.0  0.99843  0.39435  0.31382  1.0000
  H   H1        1.0  0.09988  0.01024  0.02356  1.0000
  H   H2        1.0  0.03248  0.00716  0.04839  1.0000
  H   H3        1.0  0.46104  0.48651  0.04838  1.0000
  H   H4        1.0  0.39364  0.48347  0.02348  1.0000
  H   H5        1.0  0.97824  0.09907  0.17705  1.0000
  H   H6        1.0  0.98357  0.03161  0.15202  1.0000
  H   H7        1.0  0.00919  0.46228  0.15153  1.0000
  H   H8        1.0  0.01440  0.39486  0.17584  1.0000
  C   C9        1.0  0.49541  0.35186  0.32144  1.0000
  C   C10       1.0  0.49609  0.26763  0.32628  1.0000
  C   C11       1.0  0.49265  0.28760  0.24411  1.0000
  C   C12       1.0  0.48891  0.32864  0.24479  1.0000
  H   H9        1.0  0.48196  0.34163  0.18606  1.0000
  C   C13       1.0  0.99754  0.22593  0.32647  1.0000
  C   C14       1.0  0.99801  0.14174  0.32226  1.0000
  C   C15       1.0  0.00512  0.16479  0.24565  1.0000
  C   C16       1.0  0.00147  0.20584  0.24457  1.0000
  C   C17       1.0  0.00059  0.22638  0.16333  1.0000
  C   C18       1.0  0.49401  0.26692  0.16307  1.0000
  H   H10       1.0  0.01231  0.15162  0.18724  1.0000
  O   O1        1.0  0.00285  0.20761  0.08427  1.0000
  O   O2        1.0  0.49213  0.28556  0.08379  1.0000
  H   H11       1.0  0.15769  0.48860  0.00985  1.0000
  H   H12       1.0  0.33595  0.50547  0.00964  1.0000
  O   O3        1.0  0.28676  0.49582  0.29003  1.0000
  O   O4        1.0  0.20679  0.49747  0.29007  1.0000
  C   C19       1.0  0.99621  0.46258  0.37158  1.0000
  C   C20       1.0  0.99731  0.03103  0.37184  1.0000
  C   C21       1.0  0.99833  0.07225  0.38667  1.0000
  C   C22       1.0  0.99513  0.42134  0.38608  1.0000
  C   C23       1.0  0.03100  0.99613  0.49486  1.0000
  C   C24       1.0  0.01712  0.99722  0.58160  1.0000
  C   C25       1.0  0.47646  0.49618  0.58153  1.0000
  C   C26       1.0  0.46259  0.49736  0.49480  1.0000
  C   C27       1.0  0.45074  0.49118  0.65260  1.0000
  C   C28       1.0  0.41035  0.48971  0.63610  1.0000
  C   C29       1.0  0.39371  0.49531  0.55011  1.0000
  C   C30       1.0  0.42144  0.49796  0.47902  1.0000
  C   C31       1.0  0.07215  0.99561  0.47912  1.0000
  C   C32       1.0  0.09987  0.99829  0.55024  1.0000
  C   C33       1.0  0.08320  0.00392  0.63620  1.0000
  C   C34       1.0  0.04280  0.00235  0.65269  1.0000
  H   H13       1.0  0.41228  0.50030  0.41494  1.0000
  H   H14       1.0  0.08131  0.99333  0.41504  1.0000
  H   H15       1.0  0.00187  0.08206  0.45004  1.0000
  H   H16       1.0  0.99177  0.41147  0.44945  1.0000
  C   C35       1.0  0.99680  0.99676  0.43331  1.0000
  C   C36       1.0  0.49881  0.33004  0.40123  1.0000
  N   N1        1.0  0.49845  0.28991  0.40117  1.0000
  C   C37       1.0  0.99420  0.16364  0.40182  1.0000
  H   H17       1.0  0.50258  0.34387  0.46055  1.0000
  N   N2        1.0  0.99466  0.20378  0.40146  1.0000
  H   H18       1.0  0.98997  0.14987  0.46105  1.0000
  C   C38       1.0  0.14253  0.49673  0.53910  1.0000
  C   C39       1.0  0.16769  0.49285  0.61387  1.0000
  N   N3        1.0  0.20703  0.49368  0.60695  1.0000
  C   C40       1.0  0.22615  0.49647  0.52900  1.0000
  C   C41       1.0  0.20442  0.49722  0.44917  1.0000
  C   C42       1.0  0.16266  0.49807  0.45603  1.0000
  H   H19       1.0  0.14688  0.50000  0.39881  1.0000
  C   C43       1.0  0.26745  0.49726  0.52897  1.0000
  C   C44       1.0  0.32592  0.50105  0.61373  1.0000
  C   C45       1.0  0.35106  0.49695  0.53898  1.0000
  C   C46       1.0  0.33092  0.49544  0.45595  1.0000
  N   N4        1.0  0.28658  0.50023  0.60687  1.0000
  C   C47       1.0  0.28916  0.49632  0.44912  1.0000
  C   C48       1.0  0.26762  0.49614  0.36864  1.0000
  C   C49       1.0  0.22594  0.49726  0.36866  1.0000
  H   H20       1.0  0.34670  0.49335  0.39874  1.0000
  C   C50       1.0  0.99762  0.97666  0.28505  1.0000
  C   C51       1.0  0.99587  0.51709  0.28512  1.0000
  C   C52       1.0  0.99483  0.59929  0.31456  1.0000
  C   C53       1.0  0.98646  0.58243  0.23005  1.0000
  C   C54       1.0  0.98893  0.54219  0.21387  1.0000
  C   C55       1.0  0.00409  0.95163  0.21347  1.0000
  C   C56       1.0  0.00645  0.91136  0.22927  1.0000
  C   C57       1.0  0.99846  0.89436  0.31383  1.0000
  H   H21       1.0  0.09988  0.51019  0.02356  1.0000
  H   H22       1.0  0.03247  0.50712  0.04838  1.0000
  H   H23       1.0  0.46103  0.98649  0.04839  1.0000
  H   H24       1.0  0.39363  0.98343  0.02348  1.0000
  H   H25       1.0  0.97830  0.59905  0.17696  1.0000
  H   H26       1.0  0.98363  0.53160  0.15197  1.0000
  H   H27       1.0  0.00920  0.96230  0.15156  1.0000
  H   H28       1.0  0.01442  0.89487  0.17586  1.0000
  C   C58       1.0  0.49543  0.85187  0.32145  1.0000
  C   C59       1.0  0.49609  0.76764  0.32625  1.0000
  C   C60       1.0  0.49262  0.78762  0.24410  1.0000
  C   C61       1.0  0.48889  0.82866  0.24480  1.0000
  H   H29       1.0  0.48193  0.84166  0.18610  1.0000
  C   C62       1.0  0.99753  0.72594  0.32643  1.0000
  C   C63       1.0  0.99802  0.64174  0.32220  1.0000
  C   C64       1.0  0.00508  0.66480  0.24558  1.0000
  C   C65       1.0  0.00142  0.70585  0.24451  1.0000
  C   C66       1.0  0.00051  0.72640  0.16327  1.0000
  C   C67       1.0  0.49394  0.76694  0.16305  1.0000
  H   H30       1.0  0.01226  0.65165  0.18715  1.0000
  O   O5        1.0  0.00274  0.70764  0.08421  1.0000
  O   O6        1.0  0.49204  0.78558  0.08379  1.0000
  H   H31       1.0  0.15768  0.98858  0.00986  1.0000
  H   H32       1.0  0.33596  0.00550  0.00964  1.0000
  O   O7        1.0  0.28676  0.99581  0.29005  1.0000
  O   O8        1.0  0.20679  0.99748  0.29009  1.0000
  C   C68       1.0  0.99622  0.96258  0.37160  1.0000
  C   C69       1.0  0.99732  0.53103  0.37180  1.0000
  C   C70       1.0  0.99834  0.57225  0.38662  1.0000
  C   C71       1.0  0.99515  0.92135  0.38610  1.0000
  C   C72       1.0  0.03100  0.49613  0.49483  1.0000
  C   C73       1.0  0.01712  0.49721  0.58157  1.0000
  C   C74       1.0  0.47646  0.99617  0.58156  1.0000
  C   C75       1.0  0.46259  0.99735  0.49482  1.0000
  C   C76       1.0  0.45074  0.99116  0.65262  1.0000
  C   C77       1.0  0.41035  0.98968  0.63612  1.0000
  C   C78       1.0  0.39371  0.99530  0.55012  1.0000
  C   C79       1.0  0.42144  0.99795  0.47904  1.0000
  C   C80       1.0  0.07215  0.49560  0.47910  1.0000
  C   C81       1.0  0.09987  0.49828  0.55022  1.0000
  C   C82       1.0  0.08319  0.50388  0.63619  1.0000
  C   C83       1.0  0.04280  0.50231  0.65267  1.0000
  H   H33       1.0  0.41228  0.00030  0.41496  1.0000
  H   H34       1.0  0.08131  0.49334  0.41502  1.0000
  H   H35       1.0  0.00186  0.58207  0.44999  1.0000
  H   H36       1.0  0.99179  0.91148  0.44947  1.0000
  C   C84       1.0  0.99680  0.49677  0.43329  1.0000
  C   C85       1.0  0.49886  0.83005  0.40123  1.0000
  N   N5        1.0  0.49849  0.78991  0.40115  1.0000
  C   C86       1.0  0.99424  0.66364  0.40177  1.0000
  H   H37       1.0  0.50266  0.84387  0.46054  1.0000
  N   N6        1.0  0.99469  0.70378  0.40142  1.0000
  H   H38       1.0  0.99005  0.64987  0.46101  1.0000
  C   C87       1.0  0.14253  0.99674  0.53912  1.0000
  C   C88       1.0  0.16769  0.99283  0.61388  1.0000
  N   N7        1.0  0.20703  0.99366  0.60697  1.0000
  C   C89       1.0  0.22615  0.99647  0.52902  1.0000
  C   C90       1.0  0.20442  0.99723  0.44919  1.0000
  C   C91       1.0  0.16266  0.99809  0.45605  1.0000
  H   H39       1.0  0.14688  0.00002  0.39883  1.0000
  C   C92       1.0  0.26745  0.99726  0.52899  1.0000
  C   C93       1.0  0.32593  0.00106  0.61374  1.0000
  C   C94       1.0  0.35106  0.99694  0.53900  1.0000
  C   C95       1.0  0.33092  0.99543  0.45597  1.0000
  N   N8        1.0  0.28658  0.00025  0.60689  1.0000
  C   C96       1.0  0.28916  0.99632  0.44914  1.0000
  C   C97       1.0  0.26762  0.99614  0.36866  1.0000
  C   C98       1.0  0.22595  0.99727  0.36868  1.0000
  H   H40       1.0  0.34670  0.99333  0.39876  1.0000
  C   C99       1.0  0.49762  0.47666  0.28503  1.0000
  C   C100      1.0  0.49584  0.01709  0.28516  1.0000
  C   C101      1.0  0.49480  0.09929  0.31462  1.0000
  C   C102      1.0  0.48640  0.08244  0.23012  1.0000
  C   C103      1.0  0.48888  0.04220  0.21392  1.0000
  C   C104      1.0  0.50408  0.45162  0.21345  1.0000
  C   C105      1.0  0.50643  0.41135  0.22925  1.0000
  C   C106      1.0  0.49843  0.39435  0.31382  1.0000
  H   H41       1.0  0.59989  0.01024  0.02356  1.0000
  H   H42       1.0  0.53248  0.00716  0.04839  1.0000
  H   H43       1.0  0.96104  0.48651  0.04838  1.0000
  H   H44       1.0  0.89364  0.48347  0.02348  1.0000
  H   H45       1.0  0.47824  0.09907  0.17705  1.0000
  H   H46       1.0  0.48357  0.03161  0.15202  1.0000
  H   H47       1.0  0.50919  0.46228  0.15153  1.0000
  H   H48       1.0  0.51440  0.39486  0.17584  1.0000
  C   C107      1.0  0.99541  0.35186  0.32144  1.0000
  C   C108      1.0  0.99609  0.26763  0.32628  1.0000
  C   C109      1.0  0.99265  0.28760  0.24411  1.0000
  C   C110      1.0  0.98891  0.32864  0.24479  1.0000
  H   H49       1.0  0.98196  0.34163  0.18606  1.0000
  C   C111      1.0  0.49754  0.22593  0.32647  1.0000
  C   C112      1.0  0.49801  0.14174  0.32226  1.0000
  C   C113      1.0  0.50512  0.16479  0.24565  1.0000
  C   C114      1.0  0.50147  0.20584  0.24457  1.0000
  C   C115      1.0  0.50059  0.22638  0.16333  1.0000
  C   C116      1.0  0.99401  0.26692  0.16307  1.0000
  H   H50       1.0  0.51231  0.15162  0.18724  1.0000
  O   O9        1.0  0.50286  0.20761  0.08427  1.0000
  O   O10       1.0  0.99214  0.28556  0.08379  1.0000
  H   H51       1.0  0.65769  0.48860  0.00985  1.0000
  H   H52       1.0  0.83595  0.50547  0.00964  1.0000
  O   O11       1.0  0.78676  0.49582  0.29003  1.0000
  O   O12       1.0  0.70679  0.49747  0.29007  1.0000
  C   C117      1.0  0.49621  0.46258  0.37158  1.0000
  C   C118      1.0  0.49731  0.03103  0.37184  1.0000
  C   C119      1.0  0.49833  0.07225  0.38667  1.0000
  C   C120      1.0  0.49513  0.42134  0.38608  1.0000
  C   C121      1.0  0.53100  0.99613  0.49486  1.0000
  C   C122      1.0  0.51712  0.99722  0.58160  1.0000
  C   C123      1.0  0.97645  0.49618  0.58153  1.0000
  C   C124      1.0  0.96259  0.49736  0.49480  1.0000
  C   C125      1.0  0.95074  0.49118  0.65260  1.0000
  C   C126      1.0  0.91035  0.48971  0.63610  1.0000
  C   C127      1.0  0.89371  0.49531  0.55011  1.0000
  C   C128      1.0  0.92144  0.49796  0.47902  1.0000
  C   C129      1.0  0.57215  0.99561  0.47912  1.0000
  C   C130      1.0  0.59987  0.99829  0.55024  1.0000
  C   C131      1.0  0.58320  0.00392  0.63620  1.0000
  C   C132      1.0  0.54280  0.00235  0.65269  1.0000
  H   H53       1.0  0.91228  0.50030  0.41494  1.0000
  H   H54       1.0  0.58132  0.99333  0.41504  1.0000
  H   H55       1.0  0.50187  0.08206  0.45004  1.0000
  H   H56       1.0  0.49177  0.41147  0.44945  1.0000
  C   C133      1.0  0.49680  0.99676  0.43331  1.0000
  C   C134      1.0  0.99881  0.33004  0.40123  1.0000
  N   N9        1.0  0.99844  0.28991  0.40117  1.0000
  C   C135      1.0  0.49420  0.16364  0.40182  1.0000
  H   H57       1.0  0.00258  0.34387  0.46055  1.0000
  N   N10       1.0  0.49466  0.20378  0.40146  1.0000
  H   H58       1.0  0.48997  0.14987  0.46105  1.0000
  C   C136      1.0  0.64253  0.49673  0.53910  1.0000
  C   C137      1.0  0.66769  0.49285  0.61387  1.0000
  N   N11       1.0  0.70703  0.49368  0.60695  1.0000
  C   C138      1.0  0.72615  0.49647  0.52900  1.0000
  C   C139      1.0  0.70442  0.49722  0.44917  1.0000
  C   C140      1.0  0.66266  0.49807  0.45603  1.0000
  H   H59       1.0  0.64687  0.50000  0.39881  1.0000
  C   C141      1.0  0.76745  0.49726  0.52897  1.0000
  C   C142      1.0  0.82592  0.50105  0.61373  1.0000
  C   C143      1.0  0.85106  0.49695  0.53898  1.0000
  C   C144      1.0  0.83092  0.49544  0.45595  1.0000
  N   N12       1.0  0.78658  0.50023  0.60687  1.0000
  C   C145      1.0  0.78916  0.49632  0.44912  1.0000
  C   C146      1.0  0.76762  0.49614  0.36864  1.0000
  C   C147      1.0  0.72594  0.49726  0.36866  1.0000
  H   H60       1.0  0.84670  0.49335  0.39874  1.0000
  C   C148      1.0  0.49762  0.97666  0.28505  1.0000
  C   C149      1.0  0.49587  0.51709  0.28512  1.0000
  C   C150      1.0  0.49483  0.59929  0.31456  1.0000
  C   C151      1.0  0.48646  0.58243  0.23005  1.0000
  C   C152      1.0  0.48893  0.54219  0.21387  1.0000
  C   C153      1.0  0.50409  0.95163  0.21347  1.0000
  C   C154      1.0  0.50645  0.91136  0.22927  1.0000
  C   C155      1.0  0.49846  0.89436  0.31383  1.0000
  H   H61       1.0  0.59988  0.51019  0.02356  1.0000
  H   H62       1.0  0.53248  0.50712  0.04838  1.0000
  H   H63       1.0  0.96104  0.98649  0.04839  1.0000
  H   H64       1.0  0.89363  0.98343  0.02348  1.0000
  H   H65       1.0  0.47830  0.59905  0.17696  1.0000
  H   H66       1.0  0.48363  0.53160  0.15197  1.0000
  H   H67       1.0  0.50920  0.96230  0.15156  1.0000
  H   H68       1.0  0.51443  0.89487  0.17586  1.0000
  C   C156      1.0  0.99543  0.85187  0.32145  1.0000
  C   C157      1.0  0.99609  0.76764  0.32625  1.0000
  C   C158      1.0  0.99262  0.78762  0.24410  1.0000
  C   C159      1.0  0.98890  0.82866  0.24480  1.0000
  H   H69       1.0  0.98193  0.84166  0.18610  1.0000
  C   C160      1.0  0.49754  0.72594  0.32643  1.0000
  C   C161      1.0  0.49802  0.64174  0.32220  1.0000
  C   C162      1.0  0.50509  0.66480  0.24558  1.0000
  C   C163      1.0  0.50142  0.70585  0.24451  1.0000
  C   C164      1.0  0.50051  0.72640  0.16327  1.0000
  C   C165      1.0  0.99394  0.76694  0.16305  1.0000
  H   H70       1.0  0.51226  0.65165  0.18715  1.0000
  O   O13       1.0  0.50274  0.70764  0.08421  1.0000
  O   O14       1.0  0.99204  0.78558  0.08379  1.0000
  H   H71       1.0  0.65768  0.98858  0.00986  1.0000
  H   H72       1.0  0.83596  0.00550  0.00964  1.0000
  O   O15       1.0  0.78676  0.99581  0.29005  1.0000
  O   O16       1.0  0.70679  0.99748  0.29009  1.0000
  C   C166      1.0  0.49622  0.96258  0.37160  1.0000
  C   C167      1.0  0.49733  0.53103  0.37180  1.0000
  C   C168      1.0  0.49834  0.57225  0.38662  1.0000
  C   C169      1.0  0.49515  0.92135  0.38610  1.0000
  C   C170      1.0  0.53100  0.49613  0.49483  1.0000
  C   C171      1.0  0.51712  0.49721  0.58157  1.0000
  C   C172      1.0  0.97645  0.99617  0.58156  1.0000
  C   C173      1.0  0.96259  0.99735  0.49482  1.0000
  C   C174      1.0  0.95074  0.99116  0.65262  1.0000
  C   C175      1.0  0.91035  0.98968  0.63612  1.0000
  C   C176      1.0  0.89371  0.99530  0.55012  1.0000
  C   C177      1.0  0.92144  0.99795  0.47904  1.0000
  C   C178      1.0  0.57215  0.49560  0.47910  1.0000
  C   C179      1.0  0.59987  0.49828  0.55022  1.0000
  C   C180      1.0  0.58320  0.50388  0.63619  1.0000
  C   C181      1.0  0.54280  0.50231  0.65267  1.0000
  H   H73       1.0  0.91229  0.00030  0.41496  1.0000
  H   H74       1.0  0.58132  0.49334  0.41502  1.0000
  H   H75       1.0  0.50186  0.58207  0.44999  1.0000
  H   H76       1.0  0.49179  0.91148  0.44947  1.0000
  C   C182      1.0  0.49680  0.49677  0.43329  1.0000
  C   C183      1.0  0.99886  0.83005  0.40123  1.0000
  N   N13       1.0  0.99848  0.78991  0.40115  1.0000
  C   C184      1.0  0.49424  0.66364  0.40177  1.0000
  H   H77       1.0  0.00266  0.84387  0.46054  1.0000
  N   N14       1.0  0.49469  0.70378  0.40142  1.0000
  H   H78       1.0  0.49005  0.64987  0.46101  1.0000
  C   C185      1.0  0.64253  0.99674  0.53912  1.0000
  C   C186      1.0  0.66769  0.99283  0.61388  1.0000
  N   N15       1.0  0.70703  0.99366  0.60697  1.0000
  C   C187      1.0  0.72615  0.99647  0.52902  1.0000
  C   C188      1.0  0.70442  0.99723  0.44919  1.0000
  C   C189      1.0  0.66266  0.99809  0.45605  1.0000
  H   H79       1.0  0.64688  0.00002  0.39883  1.0000
  C   C190      1.0  0.76745  0.99726  0.52899  1.0000
  C   C191      1.0  0.82593  0.00106  0.61374  1.0000
  C   C192      1.0  0.85106  0.99694  0.53900  1.0000
  C   C193      1.0  0.83092  0.99543  0.45597  1.0000
  N   N16       1.0  0.78658  0.00025  0.60689  1.0000
  C   C194      1.0  0.78916  0.99632  0.44914  1.0000
  C   C195      1.0  0.76762  0.99614  0.36866  1.0000
  C   C196      1.0  0.72594  0.99727  0.36868  1.0000
  H   H80       1.0  0.84670  0.99333  0.39876  1.0000
