data_image0
_chemical_formula_structural       C6H2C3H2NHC2H2C3H2NHC2H2C3H2NHCN2CNC2O3CN2CNC2O3C7H2N2O4NHC7H2N2O4NHC7H2N2O4NH
_chemical_formula_sum              "C48 H24 N18 O18"
_cell_length_a       29.2052
_cell_length_b       29.2059
_cell_length_c       15.048
_cell_angle_alpha    90
_cell_angle_beta     90
_cell_angle_gamma    120

_space_group_name_H-M_alt    "P 1"
_space_group_IT_number       1

loop_
  _space_group_symop_operation_xyz
  'x, y, z'

loop_
  _atom_site_type_symbol
  _atom_site_label
  _atom_site_symmetry_multiplicity
  _atom_site_fract_x
  _atom_site_fract_y
  _atom_site_fract_z
  _atom_site_occupancy
  C   C1        1.0  0.36663  0.64738  0.25991  1.0000
  C   C2        1.0  0.36621  0.77280  0.26701  1.0000
  C   C3        1.0  0.63394  0.35542  0.40460  1.0000
  C   C4        1.0  0.61694  0.22214  0.40246  1.0000
  C   C5        1.0  0.55907  0.49881  0.28550  1.0000
  C   C6        1.0  0.59221  0.47771  0.30141  1.0000
  H   H1        1.0  0.56007  0.51477  0.22445  1.0000
  H   H2        1.0  0.61596  0.47790  0.25121  1.0000
  C   C7        1.0  0.42316  0.55978  0.29606  1.0000
  C   C8        1.0  0.41839  0.51553  0.25005  1.0000
  C   C9        1.0  0.45249  0.49590  0.26890  1.0000
  H   H3        1.0  0.39072  0.49806  0.20093  1.0000
  H   H4        1.0  0.44834  0.46409  0.23353  1.0000
  N   N1        1.0  0.38923  0.57803  0.27732  1.0000
  H   H5        1.0  0.35224  0.55133  0.26824  1.0000
  C   C10       1.0  0.49855  0.05978  0.28231  1.0000
  C   C11       1.0  0.51966  0.11404  0.29804  1.0000
  H   H6        1.0  0.48329  0.04489  0.22088  1.0000
  H   H7        1.0  0.52014  0.13768  0.24741  1.0000
  C   C12       1.0  0.43631  0.86254  0.29513  1.0000
  C   C13       1.0  0.48111  0.90182  0.24997  1.0000
  C   C14       1.0  0.50081  0.95562  0.26829  1.0000
  H   H8        1.0  0.49907  0.89142  0.20202  1.0000
  H   H9        1.0  0.53310  0.98313  0.23364  1.0000
  N   N2        1.0  0.41809  0.81029  0.27705  1.0000
  H   H10       1.0  0.44481  0.79991  0.26918  1.0000
  C   C15       1.0  0.93640  0.43773  0.28186  1.0000
  C   C16       1.0  0.88215  0.40462  0.29773  1.0000
  H   H11       1.0  0.95127  0.43714  0.22051  1.0000
  H   H12       1.0  0.85849  0.38131  0.24723  1.0000
  C   C17       1.0  0.13363  0.57285  0.29385  1.0000
  C   C18       1.0  0.09430  0.57815  0.24837  1.0000
  C   C19       1.0  0.04051  0.54407  0.26684  1.0000
  H   H13       1.0  0.10466  0.60625  0.19997  1.0000
  H   H14       1.0  0.01297  0.54866  0.23192  1.0000
  N   N3        1.0  0.18586  0.60685  0.27565  1.0000
  H   H15       1.0  0.19623  0.64392  0.26742  1.0000
  C   C20       1.0  0.27790  0.62956  0.25897  1.0000
  N   N4        1.0  0.31375  0.61289  0.26018  1.0000
  N   N5        1.0  0.38331  0.69991  0.26068  1.0000
  C   C21       1.0  0.34883  0.71831  0.25946  1.0000
  N   N6        1.0  0.29629  0.68244  0.25976  1.0000
  C   C22       1.0  0.40369  0.62996  0.26800  1.0000
  C   C23       1.0  0.22338  0.59246  0.26616  1.0000
  O   O1        1.0  0.32868  0.78715  0.26542  1.0000
  O   O2        1.0  0.20905  0.54059  0.26513  1.0000
  O   O3        1.0  0.45557  0.66752  0.26808  1.0000
  C   C24       1.0  0.71836  0.36218  0.40389  1.0000
  N   N7        1.0  0.68754  0.38483  0.40441  1.0000
  N   N8        1.0  0.61128  0.30195  0.40422  1.0000
  C   C25       1.0  0.64069  0.27775  0.40371  1.0000
  N   N9        1.0  0.69417  0.30857  0.40357  1.0000
  C   C26       1.0  0.60202  0.37912  0.40395  1.0000
  C   C27       1.0  0.77398  0.39408  0.40260  1.0000
  O   O4        1.0  0.64954  0.20166  0.40690  1.0000
  O   O5        1.0  0.79441  0.44715  0.40668  1.0000
  O   O6        1.0  0.54892  0.34642  0.40687  1.0000
  C   C28       1.0  0.59132  0.45458  0.38423  1.0000
  C   C29       1.0  0.55811  0.45446  0.45309  1.0000
  C   C30       1.0  0.52523  0.47628  0.43644  1.0000
  C   C31       1.0  0.52509  0.49818  0.35280  1.0000
  C   C32       1.0  0.49129  0.51908  0.33618  1.0000
  C   C33       1.0  0.49546  0.56252  0.38526  1.0000
  C   C34       1.0  0.46114  0.58211  0.36468  1.0000
  H   H16       1.0  0.46371  0.61287  0.40114  1.0000
  H   H17       1.0  0.50074  0.47549  0.48584  1.0000
  N   N10       1.0  0.53453  0.58646  0.45220  1.0000
  N   N11       1.0  0.55938  0.43345  0.53720  1.0000
  O   O7        1.0  0.51416  0.58408  0.52685  1.0000
  O   O8        1.0  0.57437  0.46818  0.59674  1.0000
  O   O9        1.0  0.56660  0.63406  0.43450  1.0000
  O   O10       1.0  0.51472  0.39573  0.55832  1.0000
  N   N12       1.0  0.62227  0.43223  0.39507  1.0000
  H   H18       1.0  0.65979  0.45452  0.38180  1.0000
  C   C35       1.0  0.54171  0.13615  0.38148  1.0000
  C   C36       1.0  0.54080  0.10294  0.45102  1.0000
  C   C37       1.0  0.51901  0.04823  0.43451  1.0000
  C   C38       1.0  0.49811  0.02629  0.35035  1.0000
  C   C39       1.0  0.47705  0.97153  0.33408  1.0000
  C   C40       1.0  0.43296  0.93248  0.38222  1.0000
  C   C41       1.0  0.41335  0.87848  0.36225  1.0000
  H   H19       1.0  0.38215  0.85045  0.39816  1.0000
  H   H20       1.0  0.51904  0.02443  0.48446  1.0000
  N   N13       1.0  0.40841  0.94789  0.44761  1.0000
  N   N14       1.0  0.56075  0.12512  0.53563  1.0000
  O   O11       1.0  0.40982  0.92996  0.52285  1.0000
  O   O12       1.0  0.52525  0.10541  0.59393  1.0000
  O   O13       1.0  0.36106  0.93254  0.42814  1.0000
  O   O14       1.0  0.59811  0.11803  0.55867  1.0000
  N   N15       1.0  0.56387  0.18942  0.39266  1.0000
  H   H21       1.0  0.54187  0.20469  0.37743  1.0000
  C   C42       1.0  0.86005  0.40490  0.38101  1.0000
  C   C43       1.0  0.89329  0.43746  0.45031  1.0000
  C   C44       1.0  0.94799  0.47033  0.43367  1.0000
  C   C45       1.0  0.96991  0.47105  0.34963  1.0000
  C   C46       1.0  0.02466  0.50473  0.33319  1.0000
  C   C47       1.0  0.06376  0.49996  0.38171  1.0000
  C   C48       1.0  0.11774  0.53429  0.36154  1.0000
  H   H22       1.0  0.14580  0.53131  0.39769  1.0000
  H   H23       1.0  0.97180  0.49433  0.48344  1.0000
  N   N16       1.0  0.04842  0.46032  0.44767  1.0000
  N   N17       1.0  0.87116  0.43552  0.53485  1.0000
  O   O15       1.0  0.06638  0.48003  0.52271  1.0000
  O   O16       1.0  0.89088  0.41990  0.59341  1.0000
  O   O17       1.0  0.06380  0.42826  0.42887  1.0000
  O   O18       1.0  0.87829  0.48004  0.55743  1.0000
  N   N18       1.0  0.80677  0.37385  0.39210  1.0000
  H   H24       1.0  0.79143  0.33648  0.37756  1.0000
