data_image0
_chemical_formula_structural       C3H2CH2C3H2CH2C3H2CH2CNCNCNC18H12NHNHNHCNCNCNC18H12NHNHNHC3H2CH2C3H2CH2C3H2CH2
_chemical_formula_sum              "C66 H54 N12"
_cell_length_a       36.5025
_cell_length_b       36.5032
_cell_length_c       15.0357
_cell_angle_alpha    90
_cell_angle_beta     90
_cell_angle_gamma    120

_space_group_name_H-M_alt    "P 1"
_space_group_IT_number       1

loop_
  _space_group_symop_operation_xyz
  'x, y, z'

loop_
  _atom_site_type_symbol
  _atom_site_label
  _atom_site_symmetry_multiplicity
  _atom_site_fract_x
  _atom_site_fract_y
  _atom_site_fract_z
  _atom_site_occupancy
  C   C1        1.0  0.53673  0.52747  0.29010  1.0000
  C   C2        1.0  0.50724  0.54012  0.31194  1.0000
  C   C3        1.0  0.52809  0.48600  0.30906  1.0000
  H   H1        1.0  0.51430  0.57036  0.29745  1.0000
  H   H2        1.0  0.56462  0.54885  0.26071  1.0000
  C   C4        1.0  0.55906  0.47218  0.28815  1.0000
  H   H3        1.0  0.58654  0.49663  0.25228  1.0000
  H   H4        1.0  0.54342  0.44445  0.24476  1.0000
  C   C5        1.0  0.46952  0.00864  0.29009  1.0000
  C   C6        1.0  0.45687  0.96651  0.31192  1.0000
  C   C7        1.0  0.51100  0.04148  0.30904  1.0000
  H   H5        1.0  0.42664  0.94332  0.29742  1.0000
  H   H6        1.0  0.44815  0.01516  0.26069  1.0000
  C   C8        1.0  0.52481  0.08626  0.28813  1.0000
  H   H7        1.0  0.50036  0.08930  0.25226  1.0000
  H   H8        1.0  0.55254  0.09835  0.24473  1.0000
  C   C9        1.0  0.98838  0.46033  0.29008  1.0000
  C   C10       1.0  0.03052  0.48982  0.31192  1.0000
  C   C11       1.0  0.95555  0.46896  0.30903  1.0000
  H   H9        1.0  0.05371  0.48277  0.29742  1.0000
  H   H10       1.0  0.98187  0.43243  0.26068  1.0000
  C   C12       1.0  0.91076  0.43798  0.28813  1.0000
  H   H11       1.0  0.90773  0.41050  0.25225  1.0000
  H   H12       1.0  0.89866  0.45361  0.24474  1.0000
  C   C13       1.0  0.28829  0.64754  0.31891  1.0000
  N   N1        1.0  0.30683  0.62322  0.31851  1.0000
  C   C14       1.0  0.34950  0.64015  0.31888  1.0000
  N   N2        1.0  0.37382  0.68301  0.31847  1.0000
  C   C15       1.0  0.35689  0.70875  0.31887  1.0000
  N   N3        1.0  0.31403  0.69021  0.31849  1.0000
  C   C16       1.0  0.36792  0.61394  0.31446  1.0000
  C   C17       1.0  0.34523  0.57111  0.34214  1.0000
  C   C18       1.0  0.36325  0.54499  0.33559  1.0000
  C   C19       1.0  0.40416  0.56097  0.29970  1.0000
  C   C20       1.0  0.42687  0.60337  0.27145  1.0000
  C   C21       1.0  0.40917  0.62967  0.27961  1.0000
  C   C22       1.0  0.24366  0.62913  0.31448  1.0000
  C   C23       1.0  0.21813  0.58787  0.27965  1.0000
  C   C24       1.0  0.17414  0.57018  0.27145  1.0000
  C   C25       1.0  0.15445  0.59289  0.29969  1.0000
  C   C26       1.0  0.17938  0.63380  0.33558  1.0000
  C   C27       1.0  0.22352  0.65182  0.34214  1.0000
  C   C28       1.0  0.38309  0.75337  0.31439  1.0000
  C   C29       1.0  0.36736  0.77889  0.27953  1.0000
  C   C30       1.0  0.39365  0.82289  0.27139  1.0000
  C   C31       1.0  0.43605  0.84259  0.29962  1.0000
  C   C32       1.0  0.45205  0.81767  0.33550  1.0000
  C   C33       1.0  0.42593  0.77352  0.34204  1.0000
  H   H13       1.0  0.15646  0.54053  0.24504  1.0000
  H   H14       1.0  0.23136  0.57059  0.25741  1.0000
  H   H15       1.0  0.16552  0.65076  0.35592  1.0000
  H   H16       1.0  0.24072  0.68162  0.36812  1.0000
  H   H17       1.0  0.33684  0.76567  0.25741  1.0000
  H   H18       1.0  0.38166  0.84056  0.24502  1.0000
  H   H19       1.0  0.43854  0.75633  0.36805  1.0000
  H   H20       1.0  0.48287  0.83154  0.35583  1.0000
  H   H21       1.0  0.42645  0.66017  0.25739  1.0000
  H   H22       1.0  0.45652  0.61535  0.24503  1.0000
  H   H23       1.0  0.34630  0.51417  0.35594  1.0000
  H   H24       1.0  0.31543  0.55851  0.36812  1.0000
  N   N4        1.0  0.42345  0.53605  0.28987  1.0000
  H   H25       1.0  0.40394  0.50915  0.25442  1.0000
  N   N5        1.0  0.46096  0.88680  0.28982  1.0000
  H   H26       1.0  0.48787  0.89420  0.25436  1.0000
  N   N6        1.0  0.11024  0.57361  0.28986  1.0000
  H   H27       1.0  0.10286  0.59313  0.25440  1.0000
  C   C34       1.0  0.70816  0.35008  0.34302  1.0000
  N   N7        1.0  0.68962  0.37440  0.34339  1.0000
  C   C35       1.0  0.64695  0.35747  0.34297  1.0000
  N   N8        1.0  0.62263  0.31461  0.34336  1.0000
  C   C36       1.0  0.63956  0.28887  0.34297  1.0000
  N   N9        1.0  0.68242  0.30741  0.34338  1.0000
  C   C37       1.0  0.62853  0.38367  0.34743  1.0000
  C   C38       1.0  0.65121  0.42651  0.31978  1.0000
  C   C39       1.0  0.63320  0.45263  0.32638  1.0000
  C   C40       1.0  0.59228  0.43664  0.36226  1.0000
  C   C41       1.0  0.56957  0.39424  0.39047  1.0000
  C   C42       1.0  0.58728  0.36794  0.38228  1.0000
  C   C43       1.0  0.75278  0.36850  0.34747  1.0000
  C   C44       1.0  0.77831  0.40975  0.38234  1.0000
  C   C45       1.0  0.82230  0.42746  0.39049  1.0000
  C   C46       1.0  0.84200  0.40475  0.36226  1.0000
  C   C47       1.0  0.81708  0.36383  0.32637  1.0000
  C   C48       1.0  0.77293  0.34582  0.31980  1.0000
  C   C49       1.0  0.61335  0.24425  0.34741  1.0000
  C   C50       1.0  0.62907  0.21871  0.38224  1.0000
  C   C51       1.0  0.60277  0.17472  0.39045  1.0000
  C   C52       1.0  0.56036  0.15503  0.36222  1.0000
  C   C53       1.0  0.54438  0.17996  0.32632  1.0000
  C   C54       1.0  0.57052  0.22410  0.31973  1.0000
  H   H28       1.0  0.83997  0.45711  0.41689  1.0000
  H   H29       1.0  0.76507  0.42703  0.40450  1.0000
  H   H30       1.0  0.83094  0.34688  0.30602  1.0000
  H   H31       1.0  0.75574  0.31602  0.29380  1.0000
  H   H32       1.0  0.65958  0.23194  0.40448  1.0000
  H   H33       1.0  0.61475  0.15705  0.41687  1.0000
  H   H34       1.0  0.55791  0.24130  0.29376  1.0000
  H   H35       1.0  0.51356  0.16610  0.30598  1.0000
  H   H36       1.0  0.56998  0.33743  0.40444  1.0000
  H   H37       1.0  0.53992  0.38225  0.41686  1.0000
  H   H38       1.0  0.65015  0.48345  0.30604  1.0000
  H   H39       1.0  0.68102  0.43912  0.29381  1.0000
  N   N10       1.0  0.57299  0.46155  0.37210  1.0000
  H   H40       1.0  0.59251  0.48846  0.40756  1.0000
  N   N11       1.0  0.53544  0.11082  0.37207  1.0000
  H   H41       1.0  0.50854  0.10345  0.40753  1.0000
  N   N12       1.0  0.88621  0.42405  0.37209  1.0000
  H   H42       1.0  0.89360  0.40453  0.40754  1.0000
  C   C55       1.0  0.46836  0.51162  0.35294  1.0000
  C   C56       1.0  0.45972  0.47015  0.37189  1.0000
  C   C57       1.0  0.48920  0.45750  0.35005  1.0000
  H   H43       1.0  0.43182  0.44877  0.40128  1.0000
  H   H44       1.0  0.48215  0.42726  0.36454  1.0000
  C   C58       1.0  0.43739  0.52543  0.37382  1.0000
  H   H45       1.0  0.45302  0.55317  0.41722  1.0000
  H   H46       1.0  0.40990  0.50099  0.40970  1.0000
  C   C59       1.0  0.48538  0.95613  0.35291  1.0000
  C   C60       1.0  0.52685  0.98896  0.37187  1.0000
  C   C61       1.0  0.53950  0.03110  0.35004  1.0000
  H   H47       1.0  0.54823  0.98245  0.40126  1.0000
  H   H48       1.0  0.56974  0.05428  0.36452  1.0000
  C   C62       1.0  0.47157  0.91134  0.37378  1.0000
  H   H49       1.0  0.44384  0.89924  0.41717  1.0000
  H   H50       1.0  0.49602  0.90830  0.40966  1.0000
  C   C63       1.0  0.04090  0.52870  0.35291  1.0000
  C   C64       1.0  0.00806  0.53733  0.37185  1.0000
  C   C65       1.0  0.96592  0.50784  0.35003  1.0000
  H   H51       1.0  0.01458  0.56523  0.40125  1.0000
  H   H52       1.0  0.94274  0.51489  0.36450  1.0000
  C   C66       1.0  0.08568  0.55967  0.37380  1.0000
  H   H53       1.0  0.09778  0.54404  0.41721  1.0000
  H   H54       1.0  0.08872  0.58716  0.40968  1.0000
