data_image0
_chemical_formula_structural       C2HC6H3C2HC6H3C2HC6H3C2NCNC2H3CH3C2NCNC2H3CH3C2NCNC2H3CH3C24H15C24H15C24H15C24H15C2NCNC2H3CH3C2NCNC2H3CH3C2NCNC2H3CH3C2HC6H3C2HC6H3C2HC6H3
_chemical_formula_sum              "C180 H120 N12"
_cell_length_a       57.1693
_cell_length_b       57.1692
_cell_length_c       14.9577
_cell_angle_alpha    90
_cell_angle_beta     90
_cell_angle_gamma    120

_space_group_name_H-M_alt    "P 1"
_space_group_IT_number       1

loop_
  _space_group_symop_operation_xyz
  'x, y, z'

loop_
  _atom_site_type_symbol
  _atom_site_label
  _atom_site_symmetry_multiplicity
  _atom_site_fract_x
  _atom_site_fract_y
  _atom_site_fract_z
  _atom_site_occupancy
  C   C1        1.0  0.24087  0.12065  0.25138  1.0000
  C   C2        1.0  0.26937  0.13465  0.25483  1.0000
  H   H1        1.0  0.28001  0.14020  0.19605  1.0000
  C   C3        1.0  0.19778  0.09980  0.33244  1.0000
  C   C4        1.0  0.14067  0.07112  0.33449  1.0000
  C   C5        1.0  0.15501  0.07777  0.25252  1.0000
  C   C6        1.0  0.18353  0.09217  0.25022  1.0000
  C   C7        1.0  0.19814  0.09906  0.16914  1.0000
  C   C8        1.0  0.22656  0.11334  0.16970  1.0000
  H   H2        1.0  0.18821  0.09380  0.10911  1.0000
  H   H3        1.0  0.23670  0.11808  0.11007  1.0000
  H   H4        1.0  0.14456  0.07179  0.19345  1.0000
  C   C9        1.0  0.87398  0.12099  0.26159  1.0000
  C   C10       1.0  0.85994  0.13546  0.26359  1.0000
  H   H5        1.0  0.85447  0.14036  0.20428  1.0000
  C   C11       1.0  0.89468  0.09896  0.34475  1.0000
  C   C12       1.0  0.92308  0.07022  0.34931  1.0000
  C   C13       1.0  0.91666  0.07784  0.26674  1.0000
  C   C14       1.0  0.90240  0.09208  0.26318  1.0000
  C   C15       1.0  0.89568  0.09961  0.18140  1.0000
  C   C16       1.0  0.88144  0.11379  0.18060  1.0000
  H   H6        1.0  0.90101  0.09476  0.12185  1.0000
  H   H7        1.0  0.87679  0.11901  0.12049  1.0000
  H   H8        1.0  0.92264  0.07315  0.20809  1.0000
  C   C17       1.0  0.87603  0.75307  0.25704  1.0000
  C   C18       1.0  0.86141  0.72456  0.25963  1.0000
  H   H9        1.0  0.85872  0.71401  0.20150  1.0000
  C   C19       1.0  0.89457  0.79602  0.33827  1.0000
  C   C20       1.0  0.92338  0.85309  0.34135  1.0000
  C   C21       1.0  0.91942  0.83891  0.25998  1.0000
  C   C22       1.0  0.90514  0.81040  0.25725  1.0000
  C   C23       1.0  0.90105  0.79594  0.17677  1.0000
  C   C24       1.0  0.88663  0.76752  0.17667  1.0000
  H   H10       1.0  0.90848  0.80596  0.11764  1.0000
  H   H11       1.0  0.88388  0.75749  0.11747  1.0000
  H   H12       1.0  0.92725  0.84949  0.20188  1.0000
  C   C25       1.0  0.63741  0.15898  0.32436  1.0000
  C   C26       1.0  0.62698  0.16531  0.24732  1.0000
  N   N1        1.0  0.60168  0.16187  0.25102  1.0000
  C   C27       1.0  0.58511  0.15248  0.32313  1.0000
  N   N2        1.0  0.55221  0.16095  0.25253  1.0000
  C   C28       1.0  0.52976  0.16342  0.25046  1.0000
  C   C29       1.0  0.64187  0.17786  0.16359  1.0000
  H   H13       1.0  0.66288  0.18280  0.16520  1.0000
  H   H14       1.0  0.64168  0.19657  0.15100  1.0000
  H   H15       1.0  0.63193  0.16406  0.10788  1.0000
  C   C30       1.0  0.52538  0.17518  0.16823  1.0000
  H   H16       1.0  0.54151  0.18043  0.11955  1.0000
  H   H17       1.0  0.52484  0.19352  0.18439  1.0000
  H   H18       1.0  0.50637  0.16066  0.13687  1.0000
  C   C31       1.0  0.83481  0.47893  0.32524  1.0000
  C   C32       1.0  0.82845  0.46219  0.24813  1.0000
  N   N3        1.0  0.83190  0.44034  0.25168  1.0000
  C   C33       1.0  0.84130  0.43313  0.32369  1.0000
  N   N4        1.0  0.83287  0.39180  0.25285  1.0000
  C   C34       1.0  0.83043  0.36689  0.25062  1.0000
  C   C35       1.0  0.81590  0.46458  0.16449  1.0000
  H   H19       1.0  0.81095  0.48064  0.16624  1.0000
  H   H20       1.0  0.79718  0.44568  0.15187  1.0000
  H   H21       1.0  0.82968  0.46845  0.10873  1.0000
  C   C36       1.0  0.81868  0.35078  0.16836  1.0000
  H   H22       1.0  0.81344  0.36167  0.11971  1.0000
  H   H23       1.0  0.80034  0.33189  0.18446  1.0000
  H   H24       1.0  0.83321  0.34629  0.13699  1.0000
  C   C37       1.0  0.51504  0.35665  0.32422  1.0000
  C   C38       1.0  0.53180  0.36705  0.24718  1.0000
  N   N5        1.0  0.55362  0.39237  0.25076  1.0000
  C   C39       1.0  0.56079  0.40896  0.32282  1.0000
  N   N6        1.0  0.60210  0.44188  0.25201  1.0000
  C   C40       1.0  0.62700  0.46434  0.24981  1.0000
  C   C41       1.0  0.52942  0.35216  0.16342  1.0000
  H   H25       1.0  0.51340  0.33114  0.16513  1.0000
  H   H26       1.0  0.54834  0.35240  0.15064  1.0000
  H   H27       1.0  0.52550  0.36207  0.10779  1.0000
  C   C42       1.0  0.64311  0.46872  0.16751  1.0000
  H   H28       1.0  0.63222  0.45259  0.11886  1.0000
  H   H29       1.0  0.66201  0.46929  0.18357  1.0000
  H   H30       1.0  0.64757  0.48773  0.13615  1.0000
  C   C43       1.0  0.98115  0.01224  0.33999  1.0000
  C   C44       1.0  0.00974  0.02603  0.33545  1.0000
  C   C45       1.0  0.02462  0.01232  0.33098  1.0000
  C   C46       1.0  0.00976  0.98371  0.32965  1.0000
  C   C47       1.0  0.98123  0.96886  0.33543  1.0000
  C   C48       1.0  0.96746  0.98363  0.34106  1.0000
  C   C49       1.0  0.05369  0.02682  0.32978  1.0000
  C   C50       1.0  0.06865  0.05151  0.28281  1.0000
  C   C51       1.0  0.09710  0.06605  0.28445  1.0000
  C   C52       1.0  0.11181  0.05643  0.33301  1.0000
  C   C53       1.0  0.09707  0.03142  0.37771  1.0000
  C   C54       1.0  0.06865  0.01713  0.37708  1.0000
  C   C55       1.0  0.96651  0.02666  0.34354  1.0000
  C   C56       1.0  0.97638  0.05115  0.39184  1.0000
  C   C57       1.0  0.96227  0.06548  0.39355  1.0000
  C   C58       1.0  0.93732  0.05560  0.34874  1.0000
  C   C59       1.0  0.92742  0.03129  0.29985  1.0000
  C   C60       1.0  0.94175  0.01720  0.29714  1.0000
  C   C61       1.0  0.96681  0.93986  0.33656  1.0000
  C   C62       1.0  0.94242  0.92473  0.28817  1.0000
  C   C63       1.0  0.92819  0.89629  0.28977  1.0000
  C   C64       1.0  0.93775  0.88189  0.34029  1.0000
  C   C65       1.0  0.96228  0.89681  0.38747  1.0000
  C   C66       1.0  0.97643  0.92524  0.38604  1.0000
  H   H31       1.0  0.97067  0.08349  0.42696  1.0000
  H   H32       1.0  0.99400  0.05885  0.42725  1.0000
  H   H33       1.0  0.90958  0.02360  0.26556  1.0000
  H   H34       1.0  0.93402  0.00005  0.25911  1.0000
  H   H35       1.0  0.93491  0.93431  0.24990  1.0000
  H   H36       1.0  0.91060  0.88615  0.25414  1.0000
  H   H37       1.0  0.99377  0.93518  0.42291  1.0000
  H   H38       1.0  0.97019  0.88706  0.42293  1.0000
  H   H39       1.0  0.05899  0.99963  0.41324  1.0000
  H   H40       1.0  0.10693  0.02327  0.41104  1.0000
  H   H41       1.0  0.10702  0.08395  0.25037  1.0000
  H   H42       1.0  0.05897  0.05916  0.24580  1.0000
  H   H43       1.0  0.02005  0.04667  0.33571  1.0000
  H   H44       1.0  0.94692  0.97324  0.34889  1.0000
  H   H45       1.0  0.01996  0.97337  0.32220  1.0000
  C   C67       1.0  0.44311  0.24312  0.33797  1.0000
  C   C68       1.0  0.41457  0.22871  0.33428  1.0000
  C   C69       1.0  0.39948  0.20003  0.33509  1.0000
  C   C70       1.0  0.41405  0.18592  0.33910  1.0000
  C   C71       1.0  0.44258  0.19958  0.34162  1.0000
  C   C72       1.0  0.45657  0.22808  0.33914  1.0000
  C   C73       1.0  0.37044  0.18567  0.33425  1.0000
  C   C74       1.0  0.35547  0.19519  0.38226  1.0000
  C   C75       1.0  0.32703  0.18092  0.38239  1.0000
  C   C76       1.0  0.31234  0.15612  0.33641  1.0000
  C   C77       1.0  0.32710  0.14670  0.28714  1.0000
  C   C78       1.0  0.35554  0.16121  0.28598  1.0000
  C   C79       1.0  0.45861  0.27197  0.34114  1.0000
  C   C80       1.0  0.45395  0.28840  0.28127  1.0000
  C   C81       1.0  0.47174  0.31654  0.27766  1.0000
  C   C82       1.0  0.49483  0.32898  0.33323  1.0000
  C   C83       1.0  0.49865  0.31284  0.39650  1.0000
  C   C84       1.0  0.48074  0.28490  0.40076  1.0000
  C   C85       1.0  0.45755  0.18572  0.34639  1.0000
  C   C86       1.0  0.47970  0.19477  0.40579  1.0000
  C   C87       1.0  0.49729  0.18434  0.40165  1.0000
  C   C88       1.0  0.49314  0.16418  0.33874  1.0000
  C   C89       1.0  0.47010  0.15386  0.28303  1.0000
  C   C90       1.0  0.45256  0.16450  0.28672  1.0000
  H   H46       1.0  0.46853  0.32770  0.23089  1.0000
  H   H47       1.0  0.43850  0.27982  0.23597  1.0000
  H   H48       1.0  0.51523  0.32109  0.43748  1.0000
  H   H49       1.0  0.48471  0.27388  0.44601  1.0000
  H   H50       1.0  0.48400  0.21002  0.45027  1.0000
  H   H51       1.0  0.51396  0.19261  0.44223  1.0000
  H   H52       1.0  0.43707  0.15774  0.24156  1.0000
  H   H53       1.0  0.46652  0.13925  0.23682  1.0000
  H   H54       1.0  0.36527  0.15371  0.24848  1.0000
  H   H55       1.0  0.31724  0.12895  0.25227  1.0000
  H   H56       1.0  0.31709  0.18868  0.41754  1.0000
  H   H57       1.0  0.36512  0.21249  0.41947  1.0000
  H   H58       1.0  0.40465  0.23944  0.33173  1.0000
  H   H59       1.0  0.47726  0.23821  0.33713  1.0000
  H   H60       1.0  0.40375  0.16529  0.34356  1.0000
  C   C91       1.0  0.75092  0.20053  0.33837  1.0000
  C   C92       1.0  0.76536  0.18641  0.33566  1.0000
  C   C93       1.0  0.79404  0.20005  0.33699  1.0000
  C   C94       1.0  0.80812  0.22872  0.34042  1.0000
  C   C95       1.0  0.79443  0.24357  0.34195  1.0000
  C   C96       1.0  0.76594  0.22904  0.33901  1.0000
  C   C97       1.0  0.80845  0.18540  0.33751  1.0000
  C   C98       1.0  0.79888  0.16104  0.38632  1.0000
  C   C99       1.0  0.81325  0.14697  0.38807  1.0000
  C   C100      1.0  0.83818  0.15705  0.34289  1.0000
  C   C101      1.0  0.84762  0.18107  0.29273  1.0000
  C   C102      1.0  0.83302  0.19490  0.29000  1.0000
  C   C103      1.0  0.72208  0.18719  0.34141  1.0000
  C   C104      1.0  0.70566  0.16608  0.28161  1.0000
  C   C105      1.0  0.67752  0.15579  0.27780  1.0000
  C   C106      1.0  0.66508  0.16644  0.33333  1.0000
  C   C107      1.0  0.68121  0.18642  0.39653  1.0000
  C   C108      1.0  0.70915  0.19643  0.40092  1.0000
  C   C109      1.0  0.80824  0.27239  0.34656  1.0000
  C   C110      1.0  0.79912  0.28547  0.40582  1.0000
  C   C111      1.0  0.80954  0.31349  0.40170  1.0000
  C   C112      1.0  0.82969  0.32950  0.33874  1.0000
  C   C113      1.0  0.84005  0.31681  0.28309  1.0000
  C   C114      1.0  0.82945  0.28863  0.28688  1.0000
  H   H61       1.0  0.66635  0.14135  0.23120  1.0000
  H   H62       1.0  0.71424  0.15917  0.23645  1.0000
  H   H63       1.0  0.67296  0.19477  0.43741  1.0000
  H   H64       1.0  0.72016  0.21144  0.44604  1.0000
  H   H65       1.0  0.78387  0.27451  0.45024  1.0000
  H   H66       1.0  0.80121  0.32186  0.44209  1.0000
  H   H67       1.0  0.83627  0.27991  0.24193  1.0000
  H   H68       1.0  0.85469  0.32785  0.23697  1.0000
  H   H69       1.0  0.84057  0.21204  0.25200  1.0000
  H   H70       1.0  0.86546  0.18893  0.25840  1.0000
  H   H71       1.0  0.80547  0.12937  0.42380  1.0000
  H   H72       1.0  0.78151  0.15345  0.42309  1.0000
  H   H73       1.0  0.75465  0.16576  0.33360  1.0000
  H   H74       1.0  0.75579  0.23958  0.33644  1.0000
  H   H75       1.0  0.82874  0.23909  0.34532  1.0000
  C   C115      1.0  0.79343  0.55102  0.33934  1.0000
  C   C116      1.0  0.80756  0.57957  0.33642  1.0000
  C   C117      1.0  0.79389  0.59457  0.33638  1.0000
  C   C118      1.0  0.76522  0.58003  0.33904  1.0000
  C   C119      1.0  0.75037  0.55149  0.34140  1.0000
  C   C120      1.0  0.76491  0.53753  0.33951  1.0000
  C   C121      1.0  0.80850  0.62356  0.33614  1.0000
  C   C122      1.0  0.83203  0.63842  0.38884  1.0000
  C   C123      1.0  0.84605  0.66686  0.38995  1.0000
  C   C124      1.0  0.83682  0.68154  0.33937  1.0000
  C   C125      1.0  0.81367  0.66689  0.28533  1.0000
  C   C126      1.0  0.79977  0.63846  0.28394  1.0000
  C   C127      1.0  0.80677  0.53553  0.34263  1.0000
  C   C128      1.0  0.82783  0.54015  0.28269  1.0000
  C   C129      1.0  0.83810  0.52229  0.27887  1.0000
  C   C130      1.0  0.82740  0.49918  0.33432  1.0000
  C   C131      1.0  0.80745  0.49537  0.39760  1.0000
  C   C132      1.0  0.79748  0.51333  0.40203  1.0000
  C   C133      1.0  0.72154  0.53650  0.34576  1.0000
  C   C134      1.0  0.70841  0.51433  0.40510  1.0000
  C   C135      1.0  0.68038  0.49678  0.40099  1.0000
  C   C136      1.0  0.66440  0.50096  0.33801  1.0000
  C   C137      1.0  0.67715  0.52397  0.28223  1.0000
  C   C138      1.0  0.70533  0.54151  0.28605  1.0000
  H   H76       1.0  0.85252  0.52553  0.23224  1.0000
  H   H77       1.0  0.83481  0.55569  0.23767  1.0000
  H   H78       1.0  0.79904  0.47874  0.43834  1.0000
  H   H79       1.0  0.78246  0.50934  0.44710  1.0000
  H   H80       1.0  0.71932  0.51006  0.44980  1.0000
  H   H81       1.0  0.67195  0.48013  0.44162  1.0000
  H   H82       1.0  0.71408  0.55702  0.24098  1.0000
  H   H83       1.0  0.66614  0.52761  0.23610  1.0000
  H   H84       1.0  0.78321  0.62871  0.24341  1.0000
  H   H85       1.0  0.80651  0.67684  0.24727  1.0000
  H   H86       1.0  0.86296  0.67680  0.42892  1.0000
  H   H87       1.0  0.83894  0.62865  0.42885  1.0000
  H   H88       1.0  0.82823  0.58957  0.33505  1.0000
  H   H89       1.0  0.75438  0.51685  0.33719  1.0000
  H   H90       1.0  0.75489  0.59035  0.34275  1.0000
  C   C139      1.0  0.28346  0.14141  0.33736  1.0000
  C   C140      1.0  0.26776  0.13340  0.41726  1.0000
  N   N7        1.0  0.24036  0.12031  0.41093  1.0000
  C   C141      1.0  0.22633  0.11378  0.33302  1.0000
  N   N8        1.0  0.18348  0.09359  0.40975  1.0000
  C   C142      1.0  0.15604  0.07993  0.41490  1.0000
  C   C143      1.0  0.27839  0.13652  0.50951  1.0000
  H   H91       1.0  0.29996  0.14363  0.51176  1.0000
  H   H92       1.0  0.26815  0.11706  0.54377  1.0000
  H   H93       1.0  0.27452  0.15077  0.54606  1.0000
  C   C144      1.0  0.14416  0.07661  0.50529  1.0000
  H   H94       1.0  0.15974  0.08750  0.55566  1.0000
  H   H95       1.0  0.13331  0.05537  0.52426  1.0000
  H   H96       1.0  0.13028  0.08450  0.50635  1.0000
  C   C145      1.0  0.85297  0.14297  0.34538  1.0000
  C   C146      1.0  0.86086  0.13552  0.42605  1.0000
  N   N9        1.0  0.87399  0.12122  0.42113  1.0000
  C   C147      1.0  0.88072  0.11355  0.34394  1.0000
  N   N10       1.0  0.90075  0.09103  0.42269  1.0000
  C   C148      1.0  0.91427  0.07712  0.42904  1.0000
  C   C149      1.0  0.85746  0.14319  0.51774  1.0000
  H   H97       1.0  0.85028  0.15760  0.51886  1.0000
  H   H98       1.0  0.87684  0.15255  0.55256  1.0000
  H   H99       1.0  0.84316  0.12514  0.55445  1.0000
  C   C150      1.0  0.91747  0.06880  0.51993  1.0000
  H   H100      1.0  0.90669  0.07380  0.56976  1.0000
  H   H101      1.0  0.93871  0.07908  0.53890  1.0000
  H   H102      1.0  0.90940  0.04700  0.52190  1.0000
  C   C151      1.0  0.85087  0.71036  0.34081  1.0000
  C   C152      1.0  0.85532  0.72584  0.42011  1.0000
  N   N11       1.0  0.86957  0.75327  0.41467  1.0000
  C   C153      1.0  0.88008  0.76746  0.33814  1.0000
  N   N12       1.0  0.89846  0.81022  0.41496  1.0000
  C   C154      1.0  0.91219  0.83765  0.42054  1.0000
  C   C155      1.0  0.84467  0.71487  0.51013  1.0000
  H   H103      1.0  0.83100  0.69311  0.51027  1.0000
  H   H104      1.0  0.83351  0.72427  0.53627  1.0000
  H   H105      1.0  0.86147  0.71949  0.55512  1.0000
  C   C156      1.0  0.91339  0.84962  0.50945  1.0000
  H   H106      1.0  0.90168  0.83407  0.55903  1.0000
  H   H107      1.0  0.90517  0.86319  0.50538  1.0000
  H   H108      1.0  0.93420  0.86088  0.53292  1.0000
  C   C157      1.0  0.59425  0.14530  0.40093  1.0000
  C   C158      1.0  0.62035  0.14845  0.40008  1.0000
  H   H109      1.0  0.62756  0.14435  0.45717  1.0000
  C   C159      1.0  0.56020  0.15207  0.32397  1.0000
  C   C160      1.0  0.51336  0.15676  0.32845  1.0000
  C   C161      1.0  0.52083  0.14686  0.40361  1.0000
  C   C162      1.0  0.54424  0.14448  0.40267  1.0000
  C   C163      1.0  0.55297  0.13639  0.47889  1.0000
  C   C164      1.0  0.57777  0.13677  0.47800  1.0000
  H   H110      1.0  0.54188  0.13116  0.53663  1.0000
  H   H111      1.0  0.58418  0.13182  0.53512  1.0000
  H   H112      1.0  0.50982  0.14263  0.46146  1.0000
  C   C165      1.0  0.84850  0.44942  0.40155  1.0000
  C   C166      1.0  0.84534  0.47237  0.40087  1.0000
  H   H113      1.0  0.84950  0.48370  0.45796  1.0000
  C   C167      1.0  0.84175  0.40866  0.32436  1.0000
  C   C168      1.0  0.83711  0.35715  0.32855  1.0000
  C   C169      1.0  0.84702  0.37449  0.40375  1.0000
  C   C170      1.0  0.84938  0.40027  0.40294  1.0000
  C   C171      1.0  0.85749  0.41708  0.47921  1.0000
  C   C172      1.0  0.85709  0.44148  0.47849  1.0000
  H   H114      1.0  0.86278  0.41122  0.53684  1.0000
  H   H115      1.0  0.86208  0.45283  0.53563  1.0000
  H   H116      1.0  0.85129  0.36770  0.46150  1.0000
  C   C173      1.0  0.54451  0.39983  0.40069  1.0000
  C   C174      1.0  0.52158  0.37371  0.39993  1.0000
  H   H117      1.0  0.51025  0.36650  0.45701  1.0000
  C   C175      1.0  0.58524  0.43390  0.32352  1.0000
  C   C176      1.0  0.63674  0.48076  0.32773  1.0000
  C   C177      1.0  0.61940  0.47334  0.40294  1.0000
  C   C178      1.0  0.59363  0.44989  0.40215  1.0000
  C   C179      1.0  0.57683  0.44116  0.47844  1.0000
  C   C180      1.0  0.55244  0.41633  0.47769  1.0000
  H   H118      1.0  0.58269  0.45228  0.53611  1.0000
  H   H119      1.0  0.54110  0.40994  0.53483  1.0000
  H   H120      1.0  0.62621  0.48435  0.46077  1.0000
