data_image0
_chemical_formula_structural       C4HCH3C4HCH3C4HCH3N6CNCNCNC18H12CNCNCNC18H12CNCNCNC18H12CNCNCNC18H12N6C4HCH3C4HCH3C4HCH3
_chemical_formula_sum              "C114 H72 N24"
_cell_length_a       44.8043
_cell_length_b       44.8042
_cell_length_c       15.0187
_cell_angle_alpha    90
_cell_angle_beta     90
_cell_angle_gamma    120

_space_group_name_H-M_alt    "P 1"
_space_group_IT_number       1

loop_
  _space_group_symop_operation_xyz
  'x, y, z'

loop_
  _atom_site_type_symbol
  _atom_site_label
  _atom_site_symmetry_multiplicity
  _atom_site_fract_x
  _atom_site_fract_y
  _atom_site_fract_z
  _atom_site_occupancy
  C   C1        1.0  0.24479  0.12293  0.32917  1.0000
  C   C2        1.0  0.22803  0.10359  0.25237  1.0000
  C   C3        1.0  0.19167  0.08539  0.24694  1.0000
  C   C4        1.0  0.17305  0.08704  0.32158  1.0000
  H   H1        1.0  0.24238  0.10330  0.19970  1.0000
  C   C5        1.0  0.17439  0.06687  0.16359  1.0000
  H   H2        1.0  0.19277  0.07083  0.11075  1.0000
  H   H3        1.0  0.15747  0.07607  0.13921  1.0000
  H   H4        1.0  0.15912  0.03925  0.17600  1.0000
  C   C6        1.0  0.86341  0.12153  0.32970  1.0000
  C   C7        1.0  0.88267  0.12403  0.25280  1.0000
  C   C8        1.0  0.90086  0.10587  0.24738  1.0000
  C   C9        1.0  0.89933  0.08572  0.32218  1.0000
  H   H5        1.0  0.88286  0.13857  0.20000  1.0000
  C   C10       1.0  0.91926  0.10698  0.16389  1.0000
  H   H6        1.0  0.91522  0.12131  0.11098  1.0000
  H   H7        1.0  0.91002  0.08082  0.13976  1.0000
  H   H8        1.0  0.94690  0.11935  0.17603  1.0000
  C   C11       1.0  0.86475  0.74165  0.32938  1.0000
  C   C12       1.0  0.86209  0.75841  0.25268  1.0000
  C   C13       1.0  0.88026  0.79477  0.24726  1.0000
  C   C14       1.0  0.90059  0.81339  0.32182  1.0000
  H   H9        1.0  0.84743  0.74407  0.20003  1.0000
  C   C15       1.0  0.87894  0.81206  0.16400  1.0000
  H   H10       1.0  0.86447  0.79369  0.11121  1.0000
  H   H11       1.0  0.90503  0.82898  0.13947  1.0000
  H   H12       1.0  0.86660  0.82733  0.17661  1.0000
  N   N1        1.0  0.54593  0.14048  0.25406  1.0000
  N   N2        1.0  0.57444  0.13950  0.24857  1.0000
  N   N3        1.0  0.84599  0.40539  0.25324  1.0000
  N   N4        1.0  0.84712  0.43495  0.24815  1.0000
  N   N5        1.0  0.58118  0.44023  0.25336  1.0000
  N   N6        1.0  0.55162  0.41178  0.24825  1.0000
  C   C16       1.0  0.97344  0.95986  0.34500  1.0000
  N   N7        1.0  0.00844  0.97832  0.34461  1.0000
  C   C17       1.0  0.02658  0.01335  0.34489  1.0000
  N   N8        1.0  0.00812  0.02989  0.34473  1.0000
  C   C18       1.0  0.97309  0.01300  0.34514  1.0000
  N   N9        1.0  0.95654  0.97800  0.34484  1.0000
  C   C19       1.0  0.06328  0.03188  0.34172  1.0000
  C   C20       1.0  0.08216  0.01434  0.33479  1.0000
  C   C21       1.0  0.11829  0.03250  0.32849  1.0000
  C   C22       1.0  0.13673  0.06886  0.32834  1.0000
  C   C23       1.0  0.11837  0.08666  0.33804  1.0000
  C   C24       1.0  0.08218  0.06842  0.34393  1.0000
  C   C25       1.0  0.95525  0.92316  0.34190  1.0000
  C   C26       1.0  0.97289  0.90425  0.34384  1.0000
  C   C27       1.0  0.95493  0.86806  0.33800  1.0000
  C   C28       1.0  0.91875  0.84970  0.32857  1.0000
  C   C29       1.0  0.90084  0.86815  0.32901  1.0000
  C   C30       1.0  0.91882  0.90428  0.33529  1.0000
  C   C31       1.0  0.95454  0.03116  0.34213  1.0000
  C   C32       1.0  0.91801  0.01351  0.34471  1.0000
  C   C33       1.0  0.89974  0.03144  0.33895  1.0000
  C   C34       1.0  0.91752  0.06759  0.32892  1.0000
  C   C35       1.0  0.95389  0.08552  0.32874  1.0000
  C   C36       1.0  0.97207  0.06757  0.33497  1.0000
  H   H13       1.0  0.96854  0.85530  0.33861  1.0000
  H   H14       1.0  0.99915  0.91659  0.34901  1.0000
  H   H15       1.0  0.87451  0.85545  0.32506  1.0000
  H   H16       1.0  0.90478  0.91658  0.33422  1.0000
  H   H17       1.0  0.90411  0.98726  0.35035  1.0000
  H   H18       1.0  0.87337  0.01781  0.34004  1.0000
  H   H19       1.0  0.99840  0.08162  0.33340  1.0000
  H   H20       1.0  0.96748  0.11184  0.32435  1.0000
  H   H21       1.0  0.06983  0.08233  0.34935  1.0000
  H   H22       1.0  0.13113  0.11304  0.33891  1.0000
  H   H23       1.0  0.13100  0.01889  0.32434  1.0000
  H   H24       1.0  0.06987  0.98800  0.33353  1.0000
  C   C37       1.0  0.44506  0.19907  0.33835  1.0000
  N   N10       1.0  0.41018  0.18160  0.34628  1.0000
  C   C38       1.0  0.39127  0.19779  0.34808  1.0000
  N   N11       1.0  0.40829  0.23280  0.34066  1.0000
  C   C39       1.0  0.44305  0.25131  0.33124  1.0000
  N   N12       1.0  0.46052  0.23383  0.33023  1.0000
  C   C40       1.0  0.35467  0.17852  0.34973  1.0000
  C   C41       1.0  0.33682  0.14383  0.32051  1.0000
  C   C42       1.0  0.30071  0.12554  0.31405  1.0000
  C   C43       1.0  0.28113  0.14107  0.33840  1.0000
  C   C44       1.0  0.29869  0.17517  0.37139  1.0000
  C   C45       1.0  0.33493  0.19378  0.37562  1.0000
  C   C46       1.0  0.46513  0.18241  0.33629  1.0000
  C   C47       1.0  0.45041  0.14643  0.35009  1.0000
  C   C48       1.0  0.47085  0.13059  0.34866  1.0000
  C   C49       1.0  0.50659  0.15036  0.33230  1.0000
  C   C50       1.0  0.52144  0.18618  0.31853  1.0000
  C   C51       1.0  0.50110  0.20186  0.32059  1.0000
  C   C52       1.0  0.46152  0.28754  0.32003  1.0000
  C   C53       1.0  0.49090  0.30277  0.26441  1.0000
  C   C54       1.0  0.51211  0.33867  0.26015  1.0000
  C   C55       1.0  0.50520  0.36079  0.31263  1.0000
  C   C56       1.0  0.47495  0.34557  0.36544  1.0000
  C   C57       1.0  0.45305  0.30948  0.36791  1.0000
  H   H25       1.0  0.45949  0.10461  0.35915  1.0000
  H   H26       1.0  0.42459  0.13132  0.36207  1.0000
  H   H27       1.0  0.54738  0.20135  0.30775  1.0000
  H   H28       1.0  0.51324  0.22790  0.31032  1.0000
  H   H29       1.0  0.49789  0.28784  0.22839  1.0000
  H   H30       1.0  0.53412  0.34819  0.22289  1.0000
  H   H31       1.0  0.43238  0.29933  0.41019  1.0000
  H   H32       1.0  0.46920  0.36059  0.40502  1.0000
  H   H33       1.0  0.34672  0.21874  0.39745  1.0000
  H   H34       1.0  0.28534  0.18729  0.38903  1.0000
  H   H35       1.0  0.28886  0.10068  0.29134  1.0000
  H   H36       1.0  0.34993  0.13181  0.29993  1.0000
  C   C58       1.0  0.78725  0.24563  0.33731  1.0000
  N   N13       1.0  0.80472  0.22824  0.34565  1.0000
  C   C59       1.0  0.78854  0.19314  0.34780  1.0000
  N   N14       1.0  0.75353  0.17514  0.34039  1.0000
  C   C60       1.0  0.73501  0.19137  0.33061  1.0000
  N   N15       1.0  0.75249  0.22631  0.32923  1.0000
  C   C61       1.0  0.80781  0.17582  0.34976  1.0000
  C   C62       1.0  0.84252  0.19266  0.32071  1.0000
  C   C63       1.0  0.86083  0.17484  0.31452  1.0000
  C   C64       1.0  0.84527  0.13973  0.33883  1.0000
  C   C65       1.0  0.81113  0.12317  0.37158  1.0000
  C   C66       1.0  0.79253  0.14081  0.37565  1.0000
  C   C67       1.0  0.80389  0.28234  0.33487  1.0000
  C   C68       1.0  0.83974  0.30364  0.35054  1.0000
  C   C69       1.0  0.85553  0.33991  0.34920  1.0000
  C   C70       1.0  0.83586  0.35585  0.33096  1.0000
  C   C71       1.0  0.80019  0.33484  0.31501  1.0000
  C   C72       1.0  0.78455  0.29883  0.31708  1.0000
  C   C73       1.0  0.69876  0.17358  0.31953  1.0000
  C   C74       1.0  0.68349  0.18770  0.26399  1.0000
  C   C75       1.0  0.64758  0.17300  0.25987  1.0000
  C   C76       1.0  0.62550  0.14403  0.31257  1.0000
  C   C77       1.0  0.64077  0.12902  0.36530  1.0000
  C   C78       1.0  0.67686  0.14319  0.36753  1.0000
  H   H37       1.0  0.88141  0.35456  0.36121  1.0000
  H   H38       1.0  0.85477  0.29296  0.36414  1.0000
  H   H39       1.0  0.78507  0.34557  0.30283  1.0000
  H   H40       1.0  0.75861  0.28488  0.30531  1.0000
  H   H41       1.0  0.69839  0.20960  0.22785  1.0000
  H   H42       1.0  0.63804  0.18549  0.22270  1.0000
  H   H43       1.0  0.68703  0.13268  0.40979  1.0000
  H   H44       1.0  0.62578  0.10825  0.40492  1.0000
  H   H45       1.0  0.76755  0.12764  0.39732  1.0000
  H   H46       1.0  0.79900  0.09771  0.38925  1.0000
  H   H47       1.0  0.88571  0.18785  0.29197  1.0000
  H   H48       1.0  0.85458  0.21780  0.30024  1.0000
  C   C79       1.0  0.74078  0.54134  0.33787  1.0000
  N   N16       1.0  0.75815  0.57622  0.34603  1.0000
  C   C80       1.0  0.79325  0.59516  0.34811  1.0000
  N   N17       1.0  0.81128  0.57819  0.34077  1.0000
  C   C81       1.0  0.79507  0.54343  0.33116  1.0000
  N   N18       1.0  0.76013  0.52593  0.32985  1.0000
  C   C82       1.0  0.81054  0.63176  0.34986  1.0000
  C   C83       1.0  0.79368  0.64958  0.32054  1.0000
  C   C84       1.0  0.81147  0.68569  0.31411  1.0000
  C   C85       1.0  0.84657  0.70530  0.33858  1.0000
  C   C86       1.0  0.86312  0.68776  0.37169  1.0000
  C   C87       1.0  0.84552  0.65153  0.37590  1.0000
  C   C88       1.0  0.70408  0.52125  0.33547  1.0000
  C   C89       1.0  0.68275  0.53583  0.35042  1.0000
  C   C90       1.0  0.64648  0.51533  0.34893  1.0000
  C   C91       1.0  0.63057  0.47967  0.33136  1.0000
  C   C92       1.0  0.65161  0.46499  0.31623  1.0000
  C   C93       1.0  0.68762  0.48537  0.31839  1.0000
  C   C94       1.0  0.81288  0.52500  0.32002  1.0000
  C   C95       1.0  0.79885  0.49572  0.26406  1.0000
  C   C96       1.0  0.81353  0.47450  0.25989  1.0000
  C   C97       1.0  0.84244  0.48131  0.31275  1.0000
  C   C98       1.0  0.85740  0.51150  0.36580  1.0000
  C   C99       1.0  0.84317  0.53337  0.36831  1.0000
  H   H49       1.0  0.63181  0.52658  0.36034  1.0000
  H   H50       1.0  0.69341  0.56157  0.36342  1.0000
  H   H51       1.0  0.64089  0.43910  0.30453  1.0000
  H   H52       1.0  0.70157  0.47335  0.30719  1.0000
  H   H53       1.0  0.77699  0.48877  0.22780  1.0000
  H   H54       1.0  0.80111  0.45254  0.22237  1.0000
  H   H55       1.0  0.85365  0.55402  0.41069  1.0000
  H   H56       1.0  0.87811  0.51720  0.40558  1.0000
  H   H57       1.0  0.85869  0.63975  0.39781  1.0000
  H   H58       1.0  0.88857  0.70113  0.38944  1.0000
  H   H59       1.0  0.79845  0.69752  0.29133  1.0000
  H   H60       1.0  0.76857  0.63645  0.29984  1.0000
  N   N19       1.0  0.19108  0.10683  0.39218  1.0000
  N   N20       1.0  0.22471  0.12376  0.39572  1.0000
  N   N21       1.0  0.87961  0.08402  0.39288  1.0000
  N   N22       1.0  0.86266  0.10071  0.39639  1.0000
  N   N23       1.0  0.90242  0.79536  0.39233  1.0000
  N   N24       1.0  0.88571  0.76173  0.39585  1.0000
  C   C100      1.0  0.59010  0.13451  0.31985  1.0000
  C   C101      1.0  0.57321  0.12878  0.40291  1.0000
  C   C102      1.0  0.54239  0.13015  0.41033  1.0000
  C   C103      1.0  0.52870  0.13632  0.33162  1.0000
  H   H61       1.0  0.58514  0.12727  0.45941  1.0000
  C   C104      1.0  0.52688  0.12808  0.49924  1.0000
  H   H62       1.0  0.54060  0.12342  0.55264  1.0000
  H   H63       1.0  0.50023  0.10698  0.49975  1.0000
  H   H64       1.0  0.52729  0.15214  0.51386  1.0000
  C   C105      1.0  0.85200  0.45546  0.31968  1.0000
  C   C106      1.0  0.85750  0.44403  0.40263  1.0000
  C   C107      1.0  0.85589  0.41171  0.40967  1.0000
  C   C108      1.0  0.84977  0.39200  0.33067  1.0000
  H   H65       1.0  0.85875  0.45725  0.45934  1.0000
  C   C109      1.0  0.85761  0.39803  0.49854  1.0000
  H   H66       1.0  0.86214  0.41628  0.55217  1.0000
  H   H67       1.0  0.87866  0.39241  0.49945  1.0000
  H   H68       1.0  0.83346  0.37438  0.51253  1.0000
  C   C110      1.0  0.53106  0.39620  0.31975  1.0000
  C   C111      1.0  0.54243  0.41314  0.40268  1.0000
  C   C112      1.0  0.57469  0.44392  0.40980  1.0000
  C   C113      1.0  0.59442  0.45743  0.33082  1.0000
  H   H69       1.0  0.52906  0.40128  0.45931  1.0000
  C   C114      1.0  0.58825  0.45946  0.49861  1.0000
  H   H70       1.0  0.56996  0.44577  0.55218  1.0000
  H   H71       1.0  0.59380  0.48610  0.49917  1.0000
  H   H72       1.0  0.61192  0.45903  0.51296  1.0000
