data_image0
_chemical_formula_structural       C8H12C8H12C8H12CNC3H2NO2NHCNC3H2NO2NHCNC3H2NO2NHCNC3H2NO2NHCNC3H2NO2NHCNC3H2NO2NHC3NC3NC5NC5NC20H18CHCHCHCHC3NC3NC5NC5NC20H18CHCHCHCHC3NC3NC5NC5NC20H18CHCHCHCHC4HC2NHNO2NHC4HC2NHNO2NHC4HC2NHNO2NHC4HC2NHNO2NHC4HC2NHNO2NHC4HC2NHNO2NH
_chemical_formula_sum              "C204 H138 N48 O24"
_cell_length_a       57.6379
_cell_length_b       57.6379
_cell_length_c       15.01
_cell_angle_alpha    90.0436
_cell_angle_beta     89.9564
_cell_angle_gamma    120

_space_group_name_H-M_alt    "P 1"
_space_group_IT_number       1

loop_
  _space_group_symop_operation_xyz
  'x, y, z'

loop_
  _atom_site_type_symbol
  _atom_site_label
  _atom_site_symmetry_multiplicity
  _atom_site_fract_x
  _atom_site_fract_y
  _atom_site_fract_z
  _atom_site_occupancy
  C   C1        1.0  0.93096  0.40733  0.28390  1.0000
  C   C2        1.0  0.94851  0.43498  0.27252  1.0000
  C   C3        1.0  0.92032  0.57665  0.22305  1.0000
  C   C4        1.0  0.94117  0.57080  0.23068  1.0000
  C   C5        1.0  0.09930  0.66218  0.27291  1.0000
  C   C6        1.0  0.11675  0.68984  0.28447  1.0000
  C   C7        1.0  0.10674  0.52628  0.23035  1.0000
  C   C8        1.0  0.12763  0.52048  0.22260  1.0000
  H   H1        1.0  0.13214  0.51625  0.16094  1.0000
  H   H2        1.0  0.09645  0.52600  0.17439  1.0000
  H   H3        1.0  0.09610  0.65418  0.21017  1.0000
  H   H4        1.0  0.12599  0.70142  0.22981  1.0000
  H   H5        1.0  0.95144  0.57103  0.17467  1.0000
  H   H6        1.0  0.91582  0.58088  0.16142  1.0000
  H   H7        1.0  0.95171  0.44302  0.20987  1.0000
  H   H8        1.0  0.92163  0.39580  0.22922  1.0000
  H   H9        1.0  0.88048  0.58619  0.22212  1.0000
  H   H10       1.0  0.91214  0.35523  0.33539  1.0000
  H   H11       1.0  0.16758  0.51110  0.22142  1.0000
  H   H12       1.0  0.13518  0.74185  0.33641  1.0000
  C   C9        1.0  0.66591  0.59821  0.28323  1.0000
  C   C10       1.0  0.63826  0.58811  0.27180  1.0000
  C   C11       1.0  0.49659  0.41823  0.22260  1.0000
  C   C12       1.0  0.50245  0.44493  0.23022  1.0000
  C   C13       1.0  0.41107  0.51170  0.27243  1.0000
  C   C14       1.0  0.38340  0.50147  0.28390  1.0000
  C   C15       1.0  0.54695  0.65501  0.22981  1.0000
  C   C16       1.0  0.55275  0.68169  0.22205  1.0000
  H   H13       1.0  0.55699  0.69042  0.16040  1.0000
  H   H14       1.0  0.54726  0.64500  0.17386  1.0000
  H   H15       1.0  0.41909  0.51648  0.20973  1.0000
  H   H16       1.0  0.37183  0.49912  0.22922  1.0000
  H   H17       1.0  0.50222  0.45494  0.17419  1.0000
  H   H18       1.0  0.49237  0.40947  0.16098  1.0000
  H   H19       1.0  0.63023  0.58324  0.20914  1.0000
  H   H20       1.0  0.67745  0.60039  0.22856  1.0000
  H   H21       1.0  0.48702  0.36883  0.22172  1.0000
  H   H22       1.0  0.71801  0.63152  0.33476  1.0000
  H   H23       1.0  0.56211  0.73102  0.22086  1.0000
  H   H24       1.0  0.33138  0.46790  0.33566  1.0000
  C   C17       1.0  0.47502  0.14229  0.28272  1.0000
  C   C18       1.0  0.48512  0.12473  0.27134  1.0000
  C   C19       1.0  0.65505  0.15292  0.22246  1.0000
  C   C20       1.0  0.62835  0.13208  0.22998  1.0000
  C   C21       1.0  0.56154  0.97396  0.27184  1.0000
  C   C22       1.0  0.57177  0.95653  0.28336  1.0000
  C   C23       1.0  0.41816  0.96653  0.22959  1.0000
  C   C24       1.0  0.39148  0.94564  0.22194  1.0000
  H   H25       1.0  0.38273  0.94114  0.16032  1.0000
  H   H26       1.0  0.42815  0.97683  0.17360  1.0000
  H   H27       1.0  0.55678  0.97717  0.20911  1.0000
  H   H28       1.0  0.57414  0.94730  0.22869  1.0000
  H   H29       1.0  0.61837  0.12181  0.17394  1.0000
  H   H30       1.0  0.66384  0.15742  0.16088  1.0000
  H   H31       1.0  0.48997  0.12153  0.20869  1.0000
  H   H32       1.0  0.47282  0.15160  0.22803  1.0000
  H   H33       1.0  0.70445  0.19276  0.22174  1.0000
  H   H34       1.0  0.44172  0.16111  0.33419  1.0000
  H   H35       1.0  0.34215  0.90567  0.22095  1.0000
  H   H36       1.0  0.60534  0.93811  0.33523  1.0000
  C   C25       1.0  0.29683  0.50034  0.28663  1.0000
  N   N1        1.0  0.27118  0.49512  0.28963  1.0000
  C   C26       1.0  0.21331  0.47539  0.28109  1.0000
  C   C27       1.0  0.18956  0.47696  0.27860  1.0000
  C   C28       1.0  0.18240  0.48797  0.35030  1.0000
  H   H37       1.0  0.17759  0.47043  0.22335  1.0000
  H   H38       1.0  0.30703  0.50595  0.22763  1.0000
  N   N2        1.0  0.22021  0.46390  0.20979  1.0000
  O   O1        1.0  0.22315  0.47639  0.13821  1.0000
  O   O2        1.0  0.20271  0.43977  0.19823  1.0000
  N   N3        1.0  0.16017  0.49201  0.34748  1.0000
  H   H39       1.0  0.14347  0.47469  0.32709  1.0000
  C   C29       1.0  0.57291  0.87109  0.28612  1.0000
  N   N4        1.0  0.57813  0.85067  0.28912  1.0000
  C   C30       1.0  0.59781  0.81249  0.28060  1.0000
  C   C31       1.0  0.59622  0.78717  0.27810  1.0000
  C   C32       1.0  0.58519  0.76902  0.34976  1.0000
  H   H40       1.0  0.60278  0.78171  0.22288  1.0000
  H   H41       1.0  0.56729  0.87566  0.22713  1.0000
  N   N5        1.0  0.60934  0.83087  0.20934  1.0000
  O   O3        1.0  0.59687  0.82131  0.13771  1.0000
  O   O4        1.0  0.63347  0.83748  0.19787  1.0000
  N   N6        1.0  0.58117  0.74276  0.34697  1.0000
  H   H42       1.0  0.59850  0.74337  0.32665  1.0000
  C   C33       1.0  0.20217  0.77633  0.28707  1.0000
  N   N7        1.0  0.22259  0.80197  0.28992  1.0000
  C   C34       1.0  0.26072  0.85985  0.28122  1.0000
  C   C35       1.0  0.28603  0.88360  0.27857  1.0000
  C   C36       1.0  0.30421  0.89077  0.35012  1.0000
  H   H43       1.0  0.29144  0.89558  0.22334  1.0000
  H   H44       1.0  0.19755  0.76611  0.22809  1.0000
  N   N8        1.0  0.24230  0.85293  0.21007  1.0000
  O   O5        1.0  0.25183  0.85000  0.13838  1.0000
  O   O6        1.0  0.23565  0.87042  0.19867  1.0000
  N   N9        1.0  0.33047  0.91303  0.34718  1.0000
  H   H45       1.0  0.32983  0.92972  0.32690  1.0000
  C   C37       1.0  0.75205  0.59849  0.28638  1.0000
  N   N10       1.0  0.77760  0.60344  0.28950  1.0000
  C   C38       1.0  0.83537  0.62262  0.28123  1.0000
  C   C39       1.0  0.85897  0.62077  0.27888  1.0000
  C   C40       1.0  0.86592  0.60965  0.35066  1.0000
  H   H46       1.0  0.87101  0.62724  0.22374  1.0000
  H   H47       1.0  0.74187  0.59294  0.22735  1.0000
  N   N11       1.0  0.82870  0.63425  0.20988  1.0000
  O   O7        1.0  0.82569  0.62173  0.13829  1.0000
  O   O8        1.0  0.84638  0.65832  0.19842  1.0000
  N   N12       1.0  0.88803  0.60542  0.34807  1.0000
  H   H48       1.0  0.90482  0.62266  0.32771  1.0000
  C   C41       1.0  0.47473  0.22817  0.28586  1.0000
  N   N13       1.0  0.46977  0.24876  0.28900  1.0000
  C   C42       1.0  0.45058  0.28734  0.28076  1.0000
  C   C43       1.0  0.45240  0.31277  0.27844  1.0000
  C   C44       1.0  0.46351  0.33086  0.35024  1.0000
  H   H49       1.0  0.44597  0.31834  0.22326  1.0000
  H   H50       1.0  0.48029  0.22353  0.22683  1.0000
  N   N14       1.0  0.43897  0.26901  0.20936  1.0000
  O   O9        1.0  0.45151  0.27852  0.13781  1.0000
  O   O10       1.0  0.41490  0.26261  0.19783  1.0000
  N   N15       1.0  0.46777  0.35722  0.34762  1.0000
  H   H51       1.0  0.45054  0.35678  0.32721  1.0000
  C   C45       1.0  0.84511  0.32120  0.28678  1.0000
  N   N16       1.0  0.82451  0.29565  0.28980  1.0000
  C   C46       1.0  0.78592  0.23788  0.28134  1.0000
  C   C47       1.0  0.76049  0.21429  0.27887  1.0000
  C   C48       1.0  0.74235  0.20733  0.35054  1.0000
  H   H52       1.0  0.75495  0.20227  0.22369  1.0000
  H   H53       1.0  0.84977  0.33139  0.22779  1.0000
  N   N17       1.0  0.80429  0.24457  0.21009  1.0000
  O   O11       1.0  0.79484  0.24759  0.13844  1.0000
  O   O12       1.0  0.81070  0.22690  0.19869  1.0000
  N   N18       1.0  0.71600  0.18522  0.34781  1.0000
  H   H54       1.0  0.71647  0.16843  0.32751  1.0000
  C   C49       1.0  0.04573  0.48805  0.32771  1.0000
  C   C50       1.0  0.01826  0.47204  0.33290  1.0000
  C   C51       1.0  0.00700  0.48861  0.33317  1.0000
  N   N19       1.0  0.02801  0.51397  0.32850  1.0000
  C   C52       1.0  0.05190  0.51479  0.32540  1.0000
  C   C53       1.0  0.07826  0.53730  0.32189  1.0000
  C   C54       1.0  0.08463  0.56446  0.32513  1.0000
  N   N20       1.0  0.06741  0.57389  0.32883  1.0000
  C   C55       1.0  0.08034  0.60091  0.33267  1.0000
  C   C56       1.0  0.10767  0.60938  0.33190  1.0000
  C   C57       1.0  0.11031  0.58691  0.32592  1.0000
  C   C58       1.0  0.06883  0.61764  0.33671  1.0000
  C   C59       1.0  0.04090  0.60849  0.33330  1.0000
  N   N21       1.0  0.01990  0.58314  0.32844  1.0000
  C   C60       1.0  0.99601  0.58231  0.32553  1.0000
  C   C61       1.0  0.00217  0.60905  0.32803  1.0000
  C   C62       1.0  0.02964  0.62505  0.33334  1.0000
  C   C63       1.0  0.96965  0.55980  0.32208  1.0000
  C   C64       1.0  0.96328  0.53265  0.32523  1.0000
  N   N22       1.0  0.98050  0.52321  0.32887  1.0000
  C   C65       1.0  0.96756  0.49619  0.33269  1.0000
  C   C66       1.0  0.94023  0.48773  0.33206  1.0000
  C   C67       1.0  0.93760  0.51019  0.32606  1.0000
  C   C68       1.0  0.97908  0.47946  0.33661  1.0000
  C   C69       1.0  0.96132  0.45146  0.34693  1.0000
  C   C70       1.0  0.95656  0.43983  0.43258  1.0000
  C   C71       1.0  0.93919  0.41217  0.44364  1.0000
  C   C72       1.0  0.92612  0.39558  0.36953  1.0000
  C   C73       1.0  0.94798  0.56489  0.31466  1.0000
  C   C74       1.0  0.93357  0.56486  0.39082  1.0000
  C   C75       1.0  0.91256  0.57048  0.38284  1.0000
  C   C76       1.0  0.90579  0.57663  0.29901  1.0000
  C   C77       1.0  0.08657  0.64563  0.34726  1.0000
  C   C78       1.0  0.12154  0.70155  0.37019  1.0000
  C   C79       1.0  0.10857  0.68489  0.44426  1.0000
  C   C80       1.0  0.09132  0.65722  0.43301  1.0000
  C   C81       1.0  0.09993  0.53221  0.31436  1.0000
  C   C82       1.0  0.11438  0.53232  0.39043  1.0000
  C   C83       1.0  0.13544  0.52677  0.38232  1.0000
  C   C84       1.0  0.14221  0.52059  0.29846  1.0000
  H   H55       1.0  0.14574  0.52711  0.43827  1.0000
  H   H56       1.0  0.10970  0.53647  0.45200  1.0000
  H   H57       1.0  0.05883  0.48097  0.32702  1.0000
  H   H58       1.0  0.00841  0.45158  0.33525  1.0000
  H   H59       1.0  0.02616  0.52961  0.32752  1.0000
  H   H60       1.0  0.02175  0.56750  0.32721  1.0000
  H   H61       1.0  0.12819  0.58721  0.32434  1.0000
  H   H62       1.0  0.12332  0.62863  0.33396  1.0000
  H   H63       1.0  0.08229  0.64559  0.48782  1.0000
  H   H64       1.0  0.11188  0.69272  0.50721  1.0000
  H   H65       1.0  0.03949  0.64551  0.33601  1.0000
  H   H66       1.0  0.98907  0.61612  0.32784  1.0000
  H   H67       1.0  0.92459  0.46848  0.33403  1.0000
  H   H68       1.0  0.91972  0.50990  0.32456  1.0000
  H   H69       1.0  0.93827  0.56074  0.45236  1.0000
  H   H70       1.0  0.90229  0.57021  0.43884  1.0000
  H   H71       1.0  0.93585  0.40431  0.50654  1.0000
  H   H72       1.0  0.96562  0.45142  0.48744  1.0000
  C   C85       1.0  0.88342  0.58232  0.29143  1.0000
  H   H73       1.0  0.86512  0.56434  0.31292  1.0000
  C   C86       1.0  0.90675  0.36655  0.38116  1.0000
  H   H74       1.0  0.90779  0.36007  0.44885  1.0000
  C   C87       1.0  0.16465  0.51502  0.29074  1.0000
  H   H75       1.0  0.18292  0.53307  0.31204  1.0000
  C   C88       1.0  0.14073  0.73062  0.38196  1.0000
  H   H76       1.0  0.13965  0.73703  0.44974  1.0000
  C   C89       1.0  0.58517  0.63227  0.32715  1.0000
  C   C90       1.0  0.60118  0.62082  0.33232  1.0000
  C   C91       1.0  0.58462  0.59299  0.33246  1.0000
  N   N23       1.0  0.55927  0.58864  0.32783  1.0000
  C   C92       1.0  0.55844  0.61171  0.32479  1.0000
  C   C93       1.0  0.53593  0.61556  0.32135  1.0000
  C   C94       1.0  0.50877  0.59476  0.32470  1.0000
  N   N24       1.0  0.49934  0.56811  0.32849  1.0000
  C   C95       1.0  0.47231  0.55402  0.33232  1.0000
  C   C96       1.0  0.46384  0.57288  0.33146  1.0000
  C   C97       1.0  0.48632  0.59799  0.32551  1.0000
  C   C98       1.0  0.45559  0.52578  0.33637  1.0000
  C   C99       1.0  0.46475  0.50701  0.33299  1.0000
  N   N25       1.0  0.49010  0.51136  0.32814  1.0000
  C   C100      1.0  0.49092  0.48829  0.32511  1.0000
  C   C101      1.0  0.46419  0.46772  0.32764  1.0000
  C   C102      1.0  0.44818  0.47918  0.33298  1.0000
  C   C103      1.0  0.51343  0.48443  0.32160  1.0000
  C   C104      1.0  0.54059  0.50523  0.32463  1.0000
  N   N26       1.0  0.55003  0.53189  0.32817  1.0000
  C   C105      1.0  0.57705  0.54598  0.33192  1.0000
  C   C106      1.0  0.58551  0.52711  0.33124  1.0000
  C   C107      1.0  0.56304  0.50200  0.32545  1.0000
  C   C108      1.0  0.59377  0.57422  0.33582  1.0000
  C   C109      1.0  0.62177  0.58446  0.34619  1.0000
  C   C110      1.0  0.63339  0.59137  0.43184  1.0000
  C   C111      1.0  0.66105  0.60166  0.44296  1.0000
  C   C112      1.0  0.67765  0.60516  0.36887  1.0000
  C   C113      1.0  0.50834  0.45768  0.31419  1.0000
  C   C114      1.0  0.50837  0.44333  0.39036  1.0000
  C   C115      1.0  0.50274  0.41669  0.38240  1.0000
  C   C116      1.0  0.49659  0.40374  0.29858  1.0000
  C   C117      1.0  0.42760  0.51553  0.34683  1.0000
  C   C118      1.0  0.37167  0.49458  0.36959  1.0000
  C   C119      1.0  0.38830  0.49828  0.44370  1.0000
  C   C120      1.0  0.41599  0.50871  0.43254  1.0000
  C   C121      1.0  0.54101  0.64230  0.31382  1.0000
  C   C122      1.0  0.54087  0.65666  0.38987  1.0000
  C   C123      1.0  0.54642  0.68327  0.38176  1.0000
  C   C124      1.0  0.55261  0.69619  0.29790  1.0000
  H   H77       1.0  0.54606  0.69325  0.43769  1.0000
  H   H78       1.0  0.53671  0.64785  0.45144  1.0000
  H   H79       1.0  0.59225  0.65245  0.32651  1.0000
  H   H80       1.0  0.62164  0.63143  0.33462  1.0000
  H   H81       1.0  0.54362  0.57115  0.32674  1.0000
  H   H82       1.0  0.50574  0.52885  0.32695  1.0000
  H   H83       1.0  0.48601  0.61556  0.32350  1.0000
  H   H84       1.0  0.44459  0.56927  0.33326  1.0000
  H   H85       1.0  0.42760  0.51133  0.48739  1.0000
  H   H86       1.0  0.38046  0.49378  0.50663  1.0000
  H   H87       1.0  0.42772  0.46857  0.33549  1.0000
  H   H88       1.0  0.45711  0.44754  0.32723  1.0000
  H   H89       1.0  0.60476  0.53071  0.33344  1.0000
  H   H90       1.0  0.56333  0.48442  0.32411  1.0000
  H   H91       1.0  0.51247  0.45217  0.45191  1.0000
  H   H92       1.0  0.50299  0.40672  0.43842  1.0000
  H   H93       1.0  0.66890  0.60621  0.50586  1.0000
  H   H94       1.0  0.62180  0.58887  0.48669  1.0000
  C   C125      1.0  0.49089  0.37567  0.29103  1.0000
  H   H95       1.0  0.50886  0.37535  0.31258  1.0000
  C   C126      1.0  0.70668  0.61482  0.38054  1.0000
  H   H96       1.0  0.71315  0.62238  0.44823  1.0000
  C   C127      1.0  0.55818  0.72420  0.29016  1.0000
  H   H97       1.0  0.54012  0.72442  0.31139  1.0000
  C   C128      1.0  0.34259  0.48468  0.38128  1.0000
  H   H98       1.0  0.33616  0.47718  0.44903  1.0000
  C   C129      1.0  0.44096  0.02752  0.32699  1.0000
  C   C130      1.0  0.45242  0.05499  0.33220  1.0000
  C   C131      1.0  0.48025  0.06625  0.33219  1.0000
  N   N27       1.0  0.48460  0.04525  0.32746  1.0000
  C   C132      1.0  0.46152  0.02135  0.32448  1.0000
  C   C133      1.0  0.45767  0.99499  0.32095  1.0000
  C   C134      1.0  0.47846  0.98863  0.32410  1.0000
  N   N28       1.0  0.50512  0.00584  0.32787  1.0000
  C   C135      1.0  0.51920  0.99290  0.33162  1.0000
  C   C136      1.0  0.50034  0.96557  0.33071  1.0000
  C   C137      1.0  0.47523  0.96294  0.32482  1.0000
  C   C138      1.0  0.54744  0.00442  0.33571  1.0000
  C   C139      1.0  0.56621  0.03235  0.33247  1.0000
  N   N29       1.0  0.56187  0.05334  0.32760  1.0000
  C   C140      1.0  0.58494  0.07724  0.32475  1.0000
  C   C141      1.0  0.60551  0.07107  0.32735  1.0000
  C   C142      1.0  0.59405  0.04361  0.33261  1.0000
  C   C143      1.0  0.58880  0.10360  0.32121  1.0000
  C   C144      1.0  0.56800  0.10997  0.32426  1.0000
  N   N30       1.0  0.54135  0.09275  0.32785  1.0000
  C   C145      1.0  0.52726  0.10569  0.33149  1.0000
  C   C146      1.0  0.54613  0.13302  0.33064  1.0000
  C   C147      1.0  0.57124  0.13566  0.32499  1.0000
  C   C148      1.0  0.49902  0.09418  0.33544  1.0000
  C   C149      1.0  0.48878  0.11194  0.34577  1.0000
  C   C150      1.0  0.48189  0.11672  0.43141  1.0000
  C   C151      1.0  0.47159  0.13408  0.44248  1.0000
  C   C152      1.0  0.46808  0.14714  0.36835  1.0000
  C   C153      1.0  0.61556  0.12526  0.31389  1.0000
  C   C154      1.0  0.62987  0.13968  0.39009  1.0000
  C   C155      1.0  0.65651  0.16070  0.38222  1.0000
  C   C156      1.0  0.66950  0.16746  0.29847  1.0000
  C   C157      1.0  0.55768  0.98667  0.34621  1.0000
  C   C158      1.0  0.57865  0.95172  0.36907  1.0000
  C   C159      1.0  0.57492  0.96467  0.44316  1.0000
  C   C160      1.0  0.56448  0.98191  0.43196  1.0000
  C   C161      1.0  0.43092  0.97332  0.31352  1.0000
  C   C162      1.0  0.41659  0.95885  0.38962  1.0000
  C   C163      1.0  0.38997  0.93780  0.38162  1.0000
  C   C164      1.0  0.37702  0.93104  0.29784  1.0000
  H   H99       1.0  0.38002  0.92747  0.43758  1.0000
  H   H100      1.0  0.42543  0.96352  0.45114  1.0000
  H   H101      1.0  0.42078  0.01442  0.32641  1.0000
  H   H102      1.0  0.44181  0.06484  0.33449  1.0000
  H   H103      1.0  0.50208  0.04709  0.32619  1.0000
  H   H104      1.0  0.54438  0.05150  0.32624  1.0000
  H   H105      1.0  0.45766  0.94506  0.32304  1.0000
  H   H106      1.0  0.50394  0.94993  0.33264  1.0000
  H   H107      1.0  0.56185  0.99092  0.48679  1.0000
  H   H108      1.0  0.57941  0.96135  0.50611  1.0000
  H   H109      1.0  0.60465  0.03376  0.33514  1.0000
  H   H110      1.0  0.62569  0.08417  0.32703  1.0000
  H   H111      1.0  0.54253  0.14867  0.33266  1.0000
  H   H112      1.0  0.58882  0.15353  0.32332  1.0000
  H   H113      1.0  0.62100  0.13499  0.45160  1.0000
  H   H114      1.0  0.66646  0.17096  0.43826  1.0000
  H   H115      1.0  0.46706  0.13743  0.50537  1.0000
  H   H116      1.0  0.48441  0.10766  0.48629  1.0000
  C   C165      1.0  0.69757  0.18983  0.29101  1.0000
  H   H117      1.0  0.69787  0.20813  0.31242  1.0000
  C   C166      1.0  0.45841  0.16650  0.37999  1.0000
  H   H118      1.0  0.45085  0.16544  0.44766  1.0000
  C   C167      1.0  0.34900  0.90858  0.29022  1.0000
  H   H119      1.0  0.34881  0.89032  0.31136  1.0000
  C   C168      1.0  0.58855  0.93255  0.38080  1.0000
  H   H120      1.0  0.59604  0.93365  0.44857  1.0000
  C   C169      1.0  0.30938  0.49904  0.36513  1.0000
  C   C170      1.0  0.25578  0.48791  0.36451  1.0000
  C   C171      1.0  0.26741  0.48611  0.44588  1.0000
  C   C172      1.0  0.29433  0.49180  0.44474  1.0000
  H   H121      1.0  0.30320  0.49112  0.50291  1.0000
  C   C173      1.0  0.22996  0.48533  0.35773  1.0000
  C   C174      1.0  0.19910  0.49661  0.42562  1.0000
  N   N31       1.0  0.22199  0.49548  0.42549  1.0000
  H   H122      1.0  0.19500  0.50516  0.47851  1.0000
  N   N32       1.0  0.25228  0.47849  0.52569  1.0000
  O   O13       1.0  0.26269  0.49655  0.58386  1.0000
  O   O14       1.0  0.25008  0.45727  0.55704  1.0000
  N   N33       1.0  0.33672  0.50649  0.36198  1.0000
  H   H123      1.0  0.34708  0.52221  0.40519  1.0000
  C   C175      1.0  0.57420  0.88497  0.36462  1.0000
  C   C176      1.0  0.58533  0.84251  0.36400  1.0000
  C   C177      1.0  0.58712  0.85596  0.44539  1.0000
  C   C178      1.0  0.58143  0.87719  0.44425  1.0000
  H   H124      1.0  0.58211  0.88676  0.50242  1.0000
  C   C179      1.0  0.58786  0.81923  0.35721  1.0000
  C   C180      1.0  0.57654  0.77710  0.42506  1.0000
  N   N34       1.0  0.57771  0.80114  0.42497  1.0000
  H   H125      1.0  0.56803  0.76449  0.47801  1.0000
  N   N35       1.0  0.59472  0.84847  0.52520  1.0000
  O   O15       1.0  0.57666  0.84084  0.58333  1.0000
  O   O16       1.0  0.61594  0.86749  0.55661  1.0000
  N   N36       1.0  0.56675  0.90487  0.36147  1.0000
  H   H126      1.0  0.55102  0.89950  0.40466  1.0000
  C   C181      1.0  0.18832  0.76380  0.36564  1.0000
  C   C182      1.0  0.23080  0.81739  0.36477  1.0000
  C   C183      1.0  0.21737  0.80579  0.44621  1.0000
  C   C184      1.0  0.19613  0.77888  0.44520  1.0000
  H   H127      1.0  0.18657  0.77003  0.50341  1.0000
  C   C185      1.0  0.25405  0.84321  0.35786  1.0000
  C   C186      1.0  0.29620  0.87408  0.42542  1.0000
  N   N37       1.0  0.27217  0.85120  0.42550  1.0000
  H   H128      1.0  0.30883  0.87823  0.47834  1.0000
  N   N38       1.0  0.22488  0.82095  0.52596  1.0000
  O   O17       1.0  0.23252  0.81057  0.58413  1.0000
  O   O18       1.0  0.20586  0.82317  0.55736  1.0000
  N   N39       1.0  0.16840  0.73646  0.36260  1.0000
  H   H129      1.0  0.17376  0.72611  0.40581  1.0000
  C   C187      1.0  0.73955  0.59999  0.36479  1.0000
  C   C188      1.0  0.79296  0.61054  0.36444  1.0000
  C   C189      1.0  0.78137  0.61253  0.44573  1.0000
  C   C190      1.0  0.75455  0.60713  0.44446  1.0000
  H   H130      1.0  0.74571  0.60797  0.50256  1.0000
  C   C191      1.0  0.81866  0.61283  0.35780  1.0000
  C   C192      1.0  0.84915  0.60113  0.42584  1.0000
  N   N40       1.0  0.82642  0.60255  0.42563  1.0000
  H   H131      1.0  0.85314  0.59258  0.47891  1.0000
  N   N41       1.0  0.79646  0.62006  0.52558  1.0000
  O   O19       1.0  0.78587  0.60206  0.58378  1.0000
  O   O20       1.0  0.79888  0.64140  0.55683  1.0000
  N   N42       1.0  0.71228  0.59281  0.36154  1.0000
  H   H132      1.0  0.70179  0.57715  0.40483  1.0000
  C   C193      1.0  0.47323  0.21419  0.36426  1.0000
  C   C194      1.0  0.46266  0.25704  0.36395  1.0000
  C   C195      1.0  0.46068  0.24349  0.44523  1.0000
  C   C196      1.0  0.46608  0.22207  0.44393  1.0000
  H   H133      1.0  0.46526  0.21243  0.50203  1.0000
  C   C197      1.0  0.46036  0.28044  0.35733  1.0000
  C   C198      1.0  0.47200  0.32264  0.42548  1.0000
  N   N43       1.0  0.47062  0.29850  0.42519  1.0000
  H   H134      1.0  0.48061  0.33522  0.47845  1.0000
  N   N44       1.0  0.45315  0.25107  0.52509  1.0000
  O   O21       1.0  0.47116  0.25851  0.58330  1.0000
  O   O22       1.0  0.43182  0.23217  0.55633  1.0000
  N   N45       1.0  0.48042  0.19411  0.36098  1.0000
  H   H135      1.0  0.49608  0.19929  0.40428  1.0000
  C   C199      1.0  0.85905  0.33368  0.36525  1.0000
  C   C200      1.0  0.81621  0.28027  0.36469  1.0000
  C   C201      1.0  0.82972  0.29184  0.44605  1.0000
  C   C202      1.0  0.85114  0.31866  0.44487  1.0000
  H   H136      1.0  0.86076  0.32749  0.50302  1.0000
  C   C203      1.0  0.79278  0.25459  0.35793  1.0000
  C   C204      1.0  0.75054  0.22407  0.42580  1.0000
  N   N46       1.0  0.77469  0.24680  0.42569  1.0000
  H   H137      1.0  0.73794  0.22007  0.47876  1.0000
  N   N47       1.0  0.82208  0.27674  0.52587  1.0000
  O   O23       1.0  0.81461  0.28732  0.58402  1.0000
  O   O24       1.0  0.84096  0.27431  0.55723  1.0000
  N   N48       1.0  0.87915  0.36095  0.36208  1.0000
  H   H138      1.0  0.87395  0.37143  0.40537  1.0000
