data_image0
_chemical_formula_structural       C13H9C13H9C13H9C13H9C2NOCHC2NOCHC2NOCHC4H2C4H2C4H2C17H12C17H12C17H12C17H12C4H2C4H2C4H2C2NOCHC2NOCHC2NOCH
_chemical_formula_sum              "C162 H102 N6 O6"
_cell_length_a       57.1451
_cell_length_b       57.1284
_cell_length_c       14.9772
_cell_angle_alpha    90
_cell_angle_beta     90
_cell_angle_gamma    120.005

_space_group_name_H-M_alt    "P 1"
_space_group_IT_number       1

loop_
  _space_group_symop_operation_xyz
  'x, y, z'

loop_
  _atom_site_type_symbol
  _atom_site_label
  _atom_site_symmetry_multiplicity
  _atom_site_fract_x
  _atom_site_fract_y
  _atom_site_fract_z
  _atom_site_occupancy
  C   C1        1.0  0.91172  0.83696  0.33078  1.0000
  C   C2        1.0  0.93940  0.89474  0.32504  1.0000
  C   C3        1.0  0.91354  0.87917  0.28604  1.0000
  C   C4        1.0  0.89993  0.85074  0.28880  1.0000
  C   C5        1.0  0.95260  0.92285  0.31969  1.0000
  C   C6        1.0  0.06560  0.03037  0.32566  1.0000
  C   C7        1.0  0.10913  0.03547  0.28671  1.0000
  C   C8        1.0  0.15150  0.07478  0.33625  1.0000
  C   C9        1.0  0.13756  0.05015  0.28879  1.0000
  C   C10       1.0  0.96547  0.04293  0.32784  1.0000
  C   C11       1.0  0.92185  0.04036  0.30738  1.0000
  C   C12       1.0  0.91744  0.08041  0.33444  1.0000
  C   C13       1.0  0.90608  0.05298  0.30903  1.0000
  H   H1        1.0  0.88109  0.84018  0.26096  1.0000
  H   H2        1.0  0.90426  0.88842  0.25557  1.0000
  H   H3        1.0  0.91299  0.02051  0.28842  1.0000
  H   H4        1.0  0.09978  0.01766  0.25186  1.0000
  H   H5        1.0  0.14802  0.04250  0.25613  1.0000
  H   H6        1.0  0.88606  0.04178  0.29265  1.0000
  H   H7        1.0  0.05764  0.02129  0.26771  1.0000
  H   H8        1.0  0.95081  0.93089  0.26289  1.0000
  H   H9        1.0  0.98151  0.05134  0.28784  1.0000
  C   C14       1.0  0.52479  0.36591  0.31178  1.0000
  C   C15       1.0  0.48274  0.31055  0.31523  1.0000
  C   C16       1.0  0.50720  0.31849  0.26934  1.0000
  C   C17       1.0  0.52786  0.34568  0.26778  1.0000
  C   C18       1.0  0.46339  0.28325  0.31817  1.0000
  C   C19       1.0  0.35297  0.17930  0.33914  1.0000
  C   C20       1.0  0.30985  0.17426  0.29442  1.0000
  C   C21       1.0  0.26702  0.13497  0.34098  1.0000
  C   C22       1.0  0.28141  0.15960  0.29377  1.0000
  C   C23       1.0  0.45667  0.17142  0.34542  1.0000
  C   C24       1.0  0.50036  0.18292  0.28692  1.0000
  C   C25       1.0  0.52155  0.15585  0.32394  1.0000
  C   C26       1.0  0.52216  0.17817  0.28044  1.0000
  H   H10       1.0  0.54559  0.35041  0.23632  1.0000
  H   H11       1.0  0.51052  0.30442  0.23836  1.0000
  H   H12       1.0  0.50176  0.19954  0.25574  1.0000
  H   H13       1.0  0.31955  0.19209  0.25976  1.0000
  H   H14       1.0  0.27128  0.16729  0.25934  1.0000
  H   H15       1.0  0.53888  0.19172  0.24541  1.0000
  H   H16       1.0  0.36155  0.18816  0.28150  1.0000
  H   H17       1.0  0.46005  0.27268  0.26199  1.0000
  H   H18       1.0  0.44389  0.16650  0.29442  1.0000
  C   C27       1.0  0.62303  0.15953  0.31267  1.0000
  C   C28       1.0  0.67838  0.17280  0.31597  1.0000
  C   C29       1.0  0.67043  0.18929  0.26992  1.0000
  C   C30       1.0  0.64325  0.18279  0.26850  1.0000
  C   C31       1.0  0.70568  0.18074  0.31862  1.0000
  C   C32       1.0  0.80713  0.17166  0.33890  1.0000
  C   C33       1.0  0.81096  0.13168  0.31513  1.0000
  C   C34       1.0  0.85401  0.13269  0.33879  1.0000
  C   C35       1.0  0.82638  0.11869  0.31438  1.0000
  C   C36       1.0  0.81776  0.28611  0.34545  1.0000
  C   C37       1.0  0.80640  0.31835  0.28625  1.0000
  C   C38       1.0  0.83338  0.36657  0.32385  1.0000
  C   C39       1.0  0.81119  0.34492  0.27977  1.0000
  H   H19       1.0  0.63853  0.19579  0.23691  1.0000
  H   H20       1.0  0.68449  0.20666  0.23878  1.0000
  H   H21       1.0  0.78986  0.30315  0.25470  1.0000
  H   H22       1.0  0.79100  0.12083  0.29731  1.0000
  H   H23       1.0  0.81707  0.09870  0.29698  1.0000
  H   H24       1.0  0.79773  0.34813  0.24431  1.0000
  H   H25       1.0  0.79521  0.16811  0.28611  1.0000
  H   H26       1.0  0.71622  0.18806  0.26241  1.0000
  H   H27       1.0  0.82291  0.27834  0.29482  1.0000
  C   C40       1.0  0.82966  0.46434  0.31246  1.0000
  C   C41       1.0  0.81612  0.50621  0.31601  1.0000
  C   C42       1.0  0.79973  0.48177  0.26979  1.0000
  C   C43       1.0  0.80638  0.46119  0.26821  1.0000
  C   C44       1.0  0.80801  0.52545  0.31897  1.0000
  C   C45       1.0  0.81762  0.63612  0.34002  1.0000
  C   C46       1.0  0.85767  0.67963  0.31316  1.0000
  C   C47       1.0  0.85749  0.72178  0.34011  1.0000
  C   C48       1.0  0.87100  0.70807  0.31204  1.0000
  C   C49       1.0  0.70299  0.53225  0.34500  1.0000
  C   C50       1.0  0.67082  0.48859  0.28622  1.0000
  C   C51       1.0  0.62257  0.46739  0.32321  1.0000
  C   C52       1.0  0.64427  0.46679  0.27969  1.0000
  H   H28       1.0  0.79345  0.44346  0.23655  1.0000
  H   H29       1.0  0.78234  0.47838  0.23868  1.0000
  H   H30       1.0  0.68604  0.48720  0.25508  1.0000
  H   H31       1.0  0.86806  0.67027  0.29270  1.0000
  H   H32       1.0  0.89067  0.71866  0.29099  1.0000
  H   H33       1.0  0.64110  0.45007  0.24463  1.0000
  H   H34       1.0  0.82097  0.62765  0.28706  1.0000
  H   H35       1.0  0.80064  0.52863  0.26281  1.0000
  H   H36       1.0  0.71085  0.54508  0.29415  1.0000
  C   C53       1.0  0.22373  0.11247  0.25904  1.0000
  C   C54       1.0  0.19559  0.09754  0.25851  1.0000
  N   N1        1.0  0.18786  0.09348  0.17332  1.0000
  O   O1        1.0  0.23402  0.11746  0.17463  1.0000
  C   C55       1.0  0.21075  0.10537  0.12541  1.0000
  H   H37       1.0  0.21081  0.10526  0.05723  1.0000
  C   C56       1.0  0.86949  0.10417  0.26388  1.0000
  C   C57       1.0  0.88506  0.09161  0.26326  1.0000
  N   N2        1.0  0.88153  0.07981  0.18383  1.0000
  O   O2        1.0  0.85617  0.10052  0.18502  1.0000
  C   C58       1.0  0.86434  0.08512  0.13941  1.0000
  H   H38       1.0  0.85823  0.07861  0.07566  1.0000
  C   C59       1.0  0.87456  0.76428  0.25735  1.0000
  C   C60       1.0  0.88764  0.79242  0.25566  1.0000
  N   N3        1.0  0.88831  0.79961  0.17069  1.0000
  O   O3        1.0  0.86656  0.75342  0.17436  1.0000
  C   C61       1.0  0.87572  0.77641  0.12439  1.0000
  H   H39       1.0  0.87340  0.77597  0.05671  1.0000
  C   C62       1.0  0.59584  0.15419  0.31387  1.0000
  C   C63       1.0  0.54449  0.15225  0.31944  1.0000
  C   C64       1.0  0.55809  0.15507  0.23757  1.0000
  C   C65       1.0  0.58326  0.15612  0.23485  1.0000
  H   H40       1.0  0.59279  0.15927  0.17451  1.0000
  H   H41       1.0  0.55030  0.15753  0.17909  1.0000
  C   C66       1.0  0.83512  0.44257  0.31367  1.0000
  C   C67       1.0  0.83700  0.39313  0.31935  1.0000
  C   C68       1.0  0.83436  0.40400  0.23739  1.0000
  C   C69       1.0  0.83336  0.42814  0.23460  1.0000
  H   H42       1.0  0.83030  0.43457  0.17423  1.0000
  H   H43       1.0  0.83203  0.39380  0.17887  1.0000
  C   C70       1.0  0.54662  0.39310  0.31301  1.0000
  C   C71       1.0  0.59604  0.44443  0.31871  1.0000
  C   C72       1.0  0.58525  0.43087  0.23677  1.0000
  C   C73       1.0  0.56113  0.40570  0.23400  1.0000
  H   H44       1.0  0.55474  0.39617  0.17365  1.0000
  H   H45       1.0  0.59550  0.43868  0.17831  1.0000
  C   C74       1.0  0.93762  0.85249  0.36949  1.0000
  C   C75       1.0  0.95135  0.88091  0.36590  1.0000
  C   C76       1.0  0.96664  0.93960  0.38706  1.0000
  C   C77       1.0  0.97923  0.96748  0.38076  1.0000
  C   C78       1.0  0.96390  0.98067  0.37695  1.0000
  C   C79       1.0  0.97657  0.00922  0.37673  1.0000
  C   C80       1.0  0.00514  0.02450  0.38191  1.0000
  C   C81       1.0  0.02082  0.01169  0.38501  1.0000
  C   C82       1.0  0.00768  0.98317  0.38530  1.0000
  C   C83       1.0  0.04864  0.02692  0.39320  1.0000
  C   C84       1.0  0.09372  0.04498  0.33163  1.0000
  C   C85       1.0  0.10774  0.06983  0.37822  1.0000
  C   C86       1.0  0.13617  0.08433  0.38135  1.0000
  C   C87       1.0  0.96072  0.02144  0.37788  1.0000
  C   C88       1.0  0.94949  0.05487  0.33102  1.0000
  C   C89       1.0  0.96100  0.08231  0.35570  1.0000
  C   C90       1.0  0.94513  0.09481  0.35811  1.0000
  H   H46       1.0  0.94699  0.84320  0.39899  1.0000
  H   H47       1.0  0.97032  0.89139  0.39291  1.0000
  H   H48       1.0  0.01893  0.97376  0.39007  1.0000
  H   H49       1.0  0.94320  0.96929  0.37575  1.0000
  H   H50       1.0  0.01463  0.04519  0.38479  1.0000
  H   H51       1.0  0.14561  0.10236  0.41489  1.0000
  H   H52       1.0  0.09741  0.07781  0.40959  1.0000
  H   H53       1.0  0.95418  0.11478  0.37560  1.0000
  H   H54       1.0  0.98102  0.09342  0.37253  1.0000
  H   H55       1.0  0.05595  0.03537  0.45227  1.0000
  H   H56       1.0  0.96843  0.93201  0.44476  1.0000
  H   H57       1.0  0.94458  0.01329  0.41762  1.0000
  C   C91       1.0  0.50018  0.35799  0.35694  1.0000
  C   C92       1.0  0.47939  0.33073  0.35830  1.0000
  C   C93       1.0  0.45259  0.26978  0.39460  1.0000
  C   C94       1.0  0.43897  0.24183  0.39799  1.0000
  C   C95       1.0  0.45400  0.22837  0.40238  1.0000
  C   C96       1.0  0.44101  0.19989  0.40697  1.0000
  C   C97       1.0  0.41246  0.18482  0.40853  1.0000
  C   C98       1.0  0.39707  0.19796  0.40448  1.0000
  C   C99       1.0  0.41047  0.22651  0.39968  1.0000
  C   C100      1.0  0.36915  0.18297  0.40932  1.0000
  C   C101      1.0  0.32482  0.16471  0.34199  1.0000
  C   C102      1.0  0.31035  0.13984  0.38817  1.0000
  C   C103      1.0  0.28191  0.12536  0.38849  1.0000
  C   C104      1.0  0.45683  0.18777  0.41023  1.0000
  C   C105      1.0  0.47729  0.16551  0.33758  1.0000
  C   C106      1.0  0.47632  0.14308  0.38086  1.0000
  C   C107      1.0  0.49826  0.13839  0.37424  1.0000
  H   H58       1.0  0.49716  0.37207  0.38907  1.0000
  H   H59       1.0  0.46188  0.32568  0.39183  1.0000
  H   H60       1.0  0.39946  0.23620  0.39789  1.0000
  H   H61       1.0  0.47473  0.23950  0.40148  1.0000
  H   H62       1.0  0.40286  0.16415  0.41292  1.0000
  H   H63       1.0  0.27215  0.10734  0.42197  1.0000
  H   H64       1.0  0.32038  0.13184  0.42142  1.0000
  H   H65       1.0  0.49703  0.12200  0.40632  1.0000
  H   H66       1.0  0.45984  0.13023  0.41827  1.0000
  H   H67       1.0  0.36115  0.17466  0.46795  1.0000
  H   H68       1.0  0.45750  0.27960  0.45255  1.0000
  H   H69       1.0  0.47137  0.19457  0.45624  1.0000
  C   C108      1.0  0.63096  0.14288  0.35803  1.0000
  C   C109      1.0  0.65822  0.14933  0.35935  1.0000
  C   C110      1.0  0.71926  0.18320  0.39466  1.0000
  C   C111      1.0  0.74721  0.19767  0.39765  1.0000
  C   C112      1.0  0.76048  0.22616  0.40240  1.0000
  C   C113      1.0  0.78895  0.24184  0.40597  1.0000
  C   C114      1.0  0.80419  0.22854  0.40622  1.0000
  C   C115      1.0  0.79130  0.20001  0.40172  1.0000
  C   C116      1.0  0.76273  0.18470  0.39795  1.0000
  C   C117      1.0  0.80675  0.18749  0.40472  1.0000
  C   C118      1.0  0.82264  0.15909  0.34076  1.0000
  C   C119      1.0  0.85034  0.17322  0.36432  1.0000
  C   C120      1.0  0.86569  0.16016  0.36396  1.0000
  C   C121      1.0  0.80090  0.26977  0.40904  1.0000
  C   C122      1.0  0.82365  0.31263  0.33762  1.0000
  C   C123      1.0  0.84596  0.33405  0.38145  1.0000
  C   C124      1.0  0.85070  0.36069  0.37477  1.0000
  H   H70       1.0  0.61690  0.12580  0.39031  1.0000
  H   H71       1.0  0.66326  0.13687  0.39295  1.0000
  H   H72       1.0  0.75316  0.16400  0.39592  1.0000
  H   H73       1.0  0.74922  0.23562  0.40225  1.0000
  H   H74       1.0  0.82487  0.23978  0.40966  1.0000
  H   H75       1.0  0.88573  0.17113  0.38049  1.0000
  H   H76       1.0  0.85968  0.19326  0.38117  1.0000
  H   H77       1.0  0.86701  0.37582  0.40726  1.0000
  H   H78       1.0  0.85871  0.33037  0.41929  1.0000
  H   H79       1.0  0.81852  0.19114  0.45792  1.0000
  H   H80       1.0  0.70952  0.17821  0.45274  1.0000
  H   H81       1.0  0.79393  0.27750  0.45455  1.0000
  C   C125      1.0  0.84620  0.48892  0.35799  1.0000
  C   C126      1.0  0.83962  0.50964  0.35940  1.0000
  C   C127      1.0  0.80550  0.53648  0.39511  1.0000
  C   C128      1.0  0.79115  0.55007  0.39837  1.0000
  C   C129      1.0  0.76267  0.53497  0.40301  1.0000
  C   C130      1.0  0.74711  0.54789  0.40670  1.0000
  C   C131      1.0  0.76052  0.57644  0.40706  1.0000
  C   C132      1.0  0.78905  0.59196  0.40263  1.0000
  C   C133      1.0  0.80424  0.57857  0.39885  1.0000
  C   C134      1.0  0.80174  0.61994  0.40583  1.0000
  C   C135      1.0  0.83052  0.66423  0.34201  1.0000
  C   C136      1.0  0.81697  0.67815  0.36861  1.0000
  C   C137      1.0  0.83036  0.70658  0.36849  1.0000
  C   C138      1.0  0.71918  0.53200  0.40964  1.0000
  C   C139      1.0  0.67647  0.51164  0.33704  1.0000
  C   C140      1.0  0.65502  0.51259  0.38038  1.0000
  C   C141      1.0  0.62840  0.49066  0.37366  1.0000
  H   H82       1.0  0.86328  0.49199  0.39037  1.0000
  H   H83       1.0  0.85198  0.52713  0.39319  1.0000
  H   H84       1.0  0.82494  0.58962  0.39684  1.0000
  H   H85       1.0  0.75312  0.51423  0.40273  1.0000
  H   H86       1.0  0.74937  0.58597  0.41051  1.0000
  H   H87       1.0  0.82002  0.71608  0.38782  1.0000
  H   H88       1.0  0.79712  0.66770  0.38774  1.0000
  H   H89       1.0  0.61323  0.49187  0.40577  1.0000
  H   H90       1.0  0.65866  0.52906  0.41786  1.0000
  H   H91       1.0  0.79826  0.62808  0.45931  1.0000
  H   H92       1.0  0.81073  0.53191  0.45308  1.0000
  H   H93       1.0  0.71140  0.51743  0.45561  1.0000
  C   C142      1.0  0.23830  0.12008  0.34019  1.0000
  C   C143      1.0  0.18022  0.08974  0.33794  1.0000
  C   C144      1.0  0.19470  0.09761  0.41950  1.0000
  C   C145      1.0  0.22323  0.11222  0.42063  1.0000
  H   H94       1.0  0.23292  0.11748  0.48097  1.0000
  H   H95       1.0  0.18456  0.09232  0.47906  1.0000
  C   C146      1.0  0.86965  0.11955  0.33808  1.0000
  C   C147      1.0  0.90151  0.09323  0.33613  1.0000
  C   C148      1.0  0.90177  0.10865  0.41063  1.0000
  C   C149      1.0  0.88618  0.12155  0.41159  1.0000
  H   H96       1.0  0.88672  0.13214  0.46743  1.0000
  H   H97       1.0  0.91308  0.11033  0.46578  1.0000
  C   C150      1.0  0.87079  0.75031  0.33847  1.0000
  C   C151      1.0  0.89801  0.80822  0.33371  1.0000
  C   C152      1.0  0.89438  0.79414  0.41515  1.0000
  C   C153      1.0  0.88075  0.76562  0.41772  1.0000
  H   H98       1.0  0.87842  0.75613  0.47776  1.0000
  H   H99       1.0  0.90129  0.80457  0.47380  1.0000
  C   C154      1.0  0.58143  0.14967  0.39478  1.0000
  C   C155      1.0  0.55674  0.14914  0.39706  1.0000
  N   N4        1.0  0.54968  0.14746  0.48259  1.0000
  O   O4        1.0  0.59021  0.14868  0.47858  1.0000
  C   C156      1.0  0.56930  0.14660  0.52897  1.0000
  H   H100      1.0  0.56929  0.14582  0.59707  1.0000
  C   C157      1.0  0.83948  0.43261  0.39469  1.0000
  C   C158      1.0  0.84007  0.40848  0.39699  1.0000
  N   N5        1.0  0.84139  0.40292  0.48261  1.0000
  O   O5        1.0  0.84012  0.44220  0.47853  1.0000
  C   C159      1.0  0.84234  0.42346  0.52899  1.0000
  H   H101      1.0  0.84219  0.42375  0.59714  1.0000
  C   C160      1.0  0.55652  0.40748  0.39397  1.0000
  C   C161      1.0  0.58068  0.43217  0.39632  1.0000
  N   N6        1.0  0.58607  0.43921  0.48187  1.0000
  O   O6        1.0  0.54674  0.39868  0.47775  1.0000
  C   C162      1.0  0.56557  0.41957  0.52820  1.0000
  H   H102      1.0  0.56480  0.41956  0.59631  1.0000
