data_image0
_chemical_formula_structural       C4H2C4HNH2C4H2C4HNH2C4H2C4HNH2C4H3NH2C4H3NH2C4H3NH2C24H15C24H15C24H15C24H15C4H3NH2C4H3NH2C4H3NH2C4H2C4HNH2C4H2C4HNH2C4H2C4HNH2
_chemical_formula_sum              "C168 H120 N12"
_cell_length_a       57.5214
_cell_length_b       57.5214
_cell_length_c       14.9449
_cell_angle_alpha    90
_cell_angle_beta     90
_cell_angle_gamma    120

_space_group_name_H-M_alt    "P 1"
_space_group_IT_number       1

loop_
  _space_group_symop_operation_xyz
  'x, y, z'

loop_
  _atom_site_type_symbol
  _atom_site_label
  _atom_site_symmetry_multiplicity
  _atom_site_fract_x
  _atom_site_fract_y
  _atom_site_fract_z
  _atom_site_occupancy
  C   C1        1.0  0.28419  0.14185  0.33815  1.0000
  C   C2        1.0  0.22680  0.11221  0.33867  1.0000
  C   C3        1.0  0.24090  0.14018  0.32287  1.0000
  C   C4        1.0  0.26912  0.15476  0.32307  1.0000
  H   H1        1.0  0.23070  0.15020  0.31032  1.0000
  H   H2        1.0  0.27860  0.17491  0.30983  1.0000
  C   C5        1.0  0.19822  0.09846  0.33515  1.0000
  C   C6        1.0  0.14070  0.07030  0.33720  1.0000
  C   C7        1.0  0.15526  0.07488  0.25638  1.0000
  C   C8        1.0  0.18372  0.08867  0.25362  1.0000
  H   H3        1.0  0.14490  0.06830  0.19745  1.0000
  N   N1        1.0  0.19611  0.09188  0.17323  1.0000
  H   H4        1.0  0.21553  0.10099  0.16788  1.0000
  H   H5        1.0  0.18584  0.08491  0.11824  1.0000
  C   C9        1.0  0.85311  0.14327  0.33809  1.0000
  C   C10       1.0  0.88275  0.11551  0.33861  1.0000
  C   C11       1.0  0.85478  0.10165  0.32279  1.0000
  C   C12       1.0  0.84020  0.11528  0.32299  1.0000
  H   H6        1.0  0.84476  0.08143  0.31023  1.0000
  H   H7        1.0  0.82005  0.10461  0.30973  1.0000
  C   C13       1.0  0.89650  0.10069  0.33511  1.0000
  C   C14       1.0  0.92466  0.07133  0.33721  1.0000
  C   C15       1.0  0.92002  0.08124  0.25636  1.0000
  C   C16       1.0  0.90623  0.09591  0.25357  1.0000
  H   H8        1.0  0.92657  0.07742  0.19742  1.0000
  N   N2        1.0  0.90296  0.10502  0.17314  1.0000
  H   H9        1.0  0.89386  0.11535  0.16778  1.0000
  H   H10       1.0  0.90989  0.10168  0.11814  1.0000
  C   C17       1.0  0.85168  0.71077  0.33811  1.0000
  C   C18       1.0  0.87943  0.76816  0.33866  1.0000
  C   C19       1.0  0.89330  0.75406  0.32285  1.0000
  C   C20       1.0  0.87966  0.72585  0.32303  1.0000
  H   H11       1.0  0.91352  0.76427  0.31028  1.0000
  H   H12       1.0  0.89034  0.71637  0.30977  1.0000
  C   C21       1.0  0.89426  0.79674  0.33515  1.0000
  C   C22       1.0  0.92361  0.85426  0.33723  1.0000
  C   C23       1.0  0.91360  0.83971  0.25643  1.0000
  C   C24       1.0  0.89892  0.81125  0.25365  1.0000
  H   H13       1.0  0.91735  0.85006  0.19751  1.0000
  N   N3        1.0  0.88971  0.79886  0.17328  1.0000
  H   H14       1.0  0.87939  0.77944  0.16793  1.0000
  H   H15       1.0  0.89298  0.80913  0.11831  1.0000
  C   C25       1.0  0.63722  0.18800  0.30784  1.0000
  C   C26       1.0  0.61140  0.18534  0.30731  1.0000
  C   C27       1.0  0.54873  0.15652  0.25199  1.0000
  C   C28       1.0  0.52550  0.15865  0.25921  1.0000
  H   H16       1.0  0.55671  0.15769  0.18973  1.0000
  H   H17       1.0  0.51756  0.16151  0.20175  1.0000
  H   H18       1.0  0.65377  0.20677  0.30196  1.0000
  N   N4        1.0  0.60961  0.20797  0.29855  1.0000
  H   H19       1.0  0.62557  0.22555  0.29136  1.0000
  H   H20       1.0  0.59249  0.20747  0.29911  1.0000
  C   C29       1.0  0.80696  0.45015  0.30767  1.0000
  C   C30       1.0  0.80962  0.42699  0.30720  1.0000
  C   C31       1.0  0.83842  0.39312  0.25205  1.0000
  C   C32       1.0  0.83629  0.36776  0.25928  1.0000
  H   H21       1.0  0.83727  0.39993  0.18979  1.0000
  H   H22       1.0  0.83345  0.35697  0.20183  1.0000
  H   H23       1.0  0.78820  0.44794  0.30171  1.0000
  N   N5        1.0  0.78698  0.40257  0.29836  1.0000
  H   H24       1.0  0.76941  0.40095  0.29108  1.0000
  H   H25       1.0  0.78747  0.38595  0.29897  1.0000
  C   C33       1.0  0.54487  0.35774  0.30800  1.0000
  C   C34       1.0  0.56801  0.38357  0.30745  1.0000
  C   C35       1.0  0.60184  0.44623  0.25197  1.0000
  C   C36       1.0  0.62719  0.46946  0.25917  1.0000
  H   H26       1.0  0.59502  0.43825  0.18970  1.0000
  H   H27       1.0  0.63799  0.47739  0.20171  1.0000
  H   H28       1.0  0.54709  0.34119  0.30222  1.0000
  N   N6        1.0  0.59244  0.38537  0.29881  1.0000
  H   H29       1.0  0.59408  0.36942  0.29171  1.0000
  H   H30       1.0  0.60906  0.40249  0.29934  1.0000
  C   C37       1.0  0.98207  0.01315  0.34017  1.0000
  C   C38       1.0  0.01051  0.02672  0.34015  1.0000
  C   C39       1.0  0.02511  0.01289  0.34012  1.0000
  C   C40       1.0  0.01025  0.98446  0.34015  1.0000
  C   C41       1.0  0.98181  0.96985  0.34017  1.0000
  C   C42       1.0  0.96824  0.98472  0.34022  1.0000
  C   C43       1.0  0.05395  0.02719  0.33965  1.0000
  C   C44       1.0  0.06896  0.05024  0.39349  1.0000
  C   C45       1.0  0.09724  0.06429  0.39278  1.0000
  C   C46       1.0  0.11186  0.05596  0.33819  1.0000
  C   C47       1.0  0.09684  0.03286  0.28451  1.0000
  C   C48       1.0  0.06857  0.01883  0.28516  1.0000
  C   C49       1.0  0.96778  0.02770  0.33971  1.0000
  C   C50       1.0  0.97611  0.05065  0.28511  1.0000
  C   C51       1.0  0.96207  0.06488  0.28443  1.0000
  C   C52       1.0  0.93901  0.05684  0.33822  1.0000
  C   C53       1.0  0.93070  0.03390  0.39293  1.0000
  C   C54       1.0  0.94475  0.01967  0.39365  1.0000
  C   C55       1.0  0.96726  0.94101  0.33970  1.0000
  C   C56       1.0  0.94427  0.92639  0.28526  1.0000
  C   C57       1.0  0.93003  0.89812  0.28463  1.0000
  C   C58       1.0  0.93811  0.88310  0.33823  1.0000
  C   C59       1.0  0.96109  0.89772  0.39274  1.0000
  C   C60       1.0  0.97533  0.92600  0.39344  1.0000
  H   H31       1.0  0.96921  0.08156  0.24469  1.0000
  H   H32       1.0  0.99238  0.05708  0.24380  1.0000
  H   H33       1.0  0.91395  0.02700  0.43220  1.0000
  H   H34       1.0  0.93809  0.00346  0.43533  1.0000
  H   H35       1.0  0.93780  0.93622  0.24412  1.0000
  H   H36       1.0  0.91332  0.88859  0.24504  1.0000
  H   H37       1.0  0.99157  0.93555  0.43503  1.0000
  H   H38       1.0  0.96803  0.88788  0.43185  1.0000
  H   H39       1.0  0.05874  0.00255  0.24392  1.0000
  H   H40       1.0  0.10638  0.02571  0.24485  1.0000
  H   H41       1.0  0.10707  0.08106  0.43195  1.0000
  H   H42       1.0  0.05940  0.05692  0.43510  1.0000
  H   H43       1.0  0.02087  0.04727  0.34000  1.0000
  H   H44       1.0  0.94770  0.97454  0.34014  1.0000
  H   H45       1.0  0.02042  0.97409  0.34001  1.0000
  C   C61       1.0  0.44277  0.24324  0.33877  1.0000
  C   C62       1.0  0.41444  0.22887  0.33375  1.0000
  C   C63       1.0  0.39959  0.20035  0.33584  1.0000
  C   C64       1.0  0.41418  0.18646  0.34161  1.0000
  C   C65       1.0  0.44253  0.20019  0.34576  1.0000
  C   C66       1.0  0.45632  0.22850  0.34271  1.0000
  C   C67       1.0  0.37073  0.18598  0.33513  1.0000
  C   C68       1.0  0.35583  0.19523  0.38407  1.0000
  C   C69       1.0  0.32755  0.18096  0.38447  1.0000
  C   C70       1.0  0.31292  0.15659  0.33677  1.0000
  C   C71       1.0  0.32770  0.14725  0.28785  1.0000
  C   C72       1.0  0.35597  0.16170  0.28677  1.0000
  C   C73       1.0  0.45816  0.27182  0.34173  1.0000
  C   C74       1.0  0.45693  0.28790  0.27230  1.0000
  C   C75       1.0  0.47603  0.31553  0.26724  1.0000
  C   C76       1.0  0.49679  0.32761  0.33141  1.0000
  C   C77       1.0  0.49704  0.31190  0.40364  1.0000
  C   C78       1.0  0.47792  0.28449  0.40895  1.0000
  C   C79       1.0  0.45761  0.18671  0.35348  1.0000
  C   C80       1.0  0.47877  0.19569  0.41630  1.0000
  C   C81       1.0  0.49684  0.18600  0.41476  1.0000
  C   C82       1.0  0.49431  0.16657  0.35135  1.0000
  C   C83       1.0  0.47226  0.15660  0.29147  1.0000
  C   C84       1.0  0.45416  0.16640  0.29261  1.0000
  H   H46       1.0  0.47588  0.32626  0.21283  1.0000
  H   H47       1.0  0.44349  0.27923  0.22105  1.0000
  H   H48       1.0  0.51194  0.32001  0.45082  1.0000
  H   H49       1.0  0.47955  0.27349  0.45995  1.0000
  H   H50       1.0  0.48211  0.21050  0.46118  1.0000
  H   H51       1.0  0.51287  0.19462  0.45754  1.0000
  H   H52       1.0  0.43949  0.15982  0.24473  1.0000
  H   H53       1.0  0.46968  0.14265  0.24413  1.0000
  H   H54       1.0  0.36569  0.15437  0.24884  1.0000
  H   H55       1.0  0.31795  0.12998  0.25101  1.0000
  H   H56       1.0  0.31771  0.18820  0.42222  1.0000
  H   H57       1.0  0.36544  0.21227  0.42209  1.0000
  H   H58       1.0  0.40456  0.23949  0.32968  1.0000
  H   H59       1.0  0.47691  0.23874  0.34286  1.0000
  H   H60       1.0  0.40403  0.16596  0.34663  1.0000
  C   C85       1.0  0.75171  0.20044  0.33871  1.0000
  C   C86       1.0  0.76608  0.18648  0.33365  1.0000
  C   C87       1.0  0.79460  0.20015  0.33580  1.0000
  C   C88       1.0  0.80849  0.22863  0.34162  1.0000
  C   C89       1.0  0.79475  0.24325  0.34578  1.0000
  C   C90       1.0  0.76644  0.22873  0.34271  1.0000
  C   C91       1.0  0.80897  0.18567  0.33507  1.0000
  C   C92       1.0  0.79971  0.16150  0.38395  1.0000
  C   C93       1.0  0.81399  0.14751  0.38438  1.0000
  C   C94       1.0  0.83836  0.15725  0.33670  1.0000
  C   C95       1.0  0.84771  0.18137  0.28784  1.0000
  C   C96       1.0  0.83325  0.19519  0.28671  1.0000
  C   C97       1.0  0.72312  0.18725  0.34162  1.0000
  C   C98       1.0  0.70707  0.16995  0.27215  1.0000
  C   C99       1.0  0.67944  0.16145  0.26704  1.0000
  C   C100      1.0  0.66733  0.17004  0.33137  1.0000
  C   C101      1.0  0.68303  0.18599  0.40361  1.0000
  C   C102      1.0  0.71045  0.19429  0.40895  1.0000
  C   C103      1.0  0.80824  0.27181  0.35353  1.0000
  C   C104      1.0  0.79924  0.28398  0.41634  1.0000
  C   C105      1.0  0.80896  0.31175  0.41491  1.0000
  C   C106      1.0  0.82837  0.32865  0.35143  1.0000
  C   C107      1.0  0.83835  0.31658  0.29154  1.0000
  C   C108      1.0  0.82853  0.28867  0.29265  1.0000
  H   H61       1.0  0.66869  0.15051  0.21273  1.0000
  H   H62       1.0  0.71574  0.16519  0.22088  1.0000
  H   H63       1.0  0.67492  0.19276  0.45083  1.0000
  H   H64       1.0  0.72145  0.20695  0.45990  1.0000
  H   H65       1.0  0.78442  0.27251  0.46119  1.0000
  H   H66       1.0  0.80029  0.31915  0.45754  1.0000
  H   H67       1.0  0.83514  0.28058  0.24486  1.0000
  H   H68       1.0  0.85231  0.32795  0.24425  1.0000
  H   H69       1.0  0.84059  0.21225  0.24885  1.0000
  H   H70       1.0  0.86499  0.18891  0.25100  1.0000
  H   H71       1.0  0.80675  0.13042  0.42211  1.0000
  H   H72       1.0  0.78268  0.15408  0.42201  1.0000
  H   H73       1.0  0.75546  0.16597  0.32957  1.0000
  H   H74       1.0  0.75620  0.23907  0.34287  1.0000
  H   H75       1.0  0.82898  0.23898  0.34665  1.0000
  C   C109      1.0  0.79454  0.55220  0.33873  1.0000
  C   C110      1.0  0.80848  0.58053  0.33368  1.0000
  C   C111      1.0  0.79481  0.59537  0.33581  1.0000
  C   C112      1.0  0.76633  0.58078  0.34160  1.0000
  C   C113      1.0  0.75172  0.55242  0.34574  1.0000
  C   C114      1.0  0.76625  0.53864  0.34269  1.0000
  C   C115      1.0  0.80929  0.62423  0.33509  1.0000
  C   C116      1.0  0.83345  0.63914  0.38398  1.0000
  C   C117      1.0  0.84744  0.66741  0.38439  1.0000
  C   C118      1.0  0.83770  0.68204  0.33672  1.0000
  C   C119      1.0  0.81358  0.66726  0.28784  1.0000
  C   C120      1.0  0.79976  0.63899  0.28672  1.0000
  C   C121      1.0  0.80774  0.53682  0.34160  1.0000
  C   C122      1.0  0.82496  0.53800  0.27198  1.0000
  C   C123      1.0  0.83351  0.51891  0.26691  1.0000
  C   C124      1.0  0.82493  0.49822  0.33127  1.0000
  C   C125      1.0  0.80900  0.49798  0.40357  1.0000
  C   C126      1.0  0.80069  0.51709  0.40889  1.0000
  C   C127      1.0  0.72315  0.53733  0.35343  1.0000
  C   C128      1.0  0.71097  0.51614  0.41614  1.0000
  C   C129      1.0  0.68321  0.49810  0.41468  1.0000
  C   C130      1.0  0.66631  0.50064  0.35129  1.0000
  C   C131      1.0  0.67839  0.52268  0.29139  1.0000
  C   C132      1.0  0.70629  0.54079  0.29260  1.0000
  H   H76       1.0  0.84445  0.51910  0.21260  1.0000
  H   H77       1.0  0.82979  0.55149  0.22085  1.0000
  H   H78       1.0  0.80220  0.48308  0.45073  1.0000
  H   H79       1.0  0.78805  0.51544  0.45988  1.0000
  H   H80       1.0  0.72244  0.51282  0.46113  1.0000
  H   H81       1.0  0.67579  0.48207  0.45748  1.0000
  H   H82       1.0  0.71439  0.55548  0.24478  1.0000
  H   H83       1.0  0.66702  0.52529  0.24416  1.0000
  H   H84       1.0  0.78271  0.62926  0.24885  1.0000
  H   H85       1.0  0.80604  0.67700  0.25101  1.0000
  H   H86       1.0  0.86452  0.67726  0.42217  1.0000
  H   H87       1.0  0.84087  0.62953  0.42206  1.0000
  H   H88       1.0  0.82899  0.59042  0.32959  1.0000
  H   H89       1.0  0.75591  0.51805  0.34283  1.0000
  H   H90       1.0  0.75597  0.59092  0.34662  1.0000
  C   C133      1.0  0.26992  0.11385  0.35422  1.0000
  C   C134      1.0  0.24146  0.09872  0.35510  1.0000
  C   C135      1.0  0.18394  0.09413  0.41608  1.0000
  C   C136      1.0  0.15572  0.08029  0.41699  1.0000
  H   H91       1.0  0.19402  0.10082  0.47552  1.0000
  H   H92       1.0  0.14621  0.07708  0.47741  1.0000
  H   H93       1.0  0.28051  0.10422  0.36670  1.0000
  N   N7        1.0  0.22923  0.07185  0.37104  1.0000
  H   H94       1.0  0.23960  0.06298  0.38206  1.0000
  H   H95       1.0  0.20981  0.06061  0.37211  1.0000
  C   C137      1.0  0.88111  0.15700  0.35419  1.0000
  C   C138      1.0  0.89624  0.14367  0.35507  1.0000
  C   C139      1.0  0.90089  0.09080  0.41609  1.0000
  C   C140      1.0  0.91473  0.07642  0.41701  1.0000
  H   H96       1.0  0.89425  0.09424  0.47555  1.0000
  H   H97       1.0  0.91799  0.07018  0.47746  1.0000
  H   H98       1.0  0.89073  0.17721  0.36668  1.0000
  N   N8        1.0  0.92311  0.15831  0.37102  1.0000
  H   H99       1.0  0.93197  0.17755  0.38205  1.0000
  H   H100      1.0  0.93436  0.15014  0.37207  1.0000
  C   C141      1.0  0.83795  0.72504  0.35420  1.0000
  C   C142      1.0  0.85127  0.75349  0.35510  1.0000
  C   C143      1.0  0.90424  0.81101  0.41608  1.0000
  C   C144      1.0  0.91863  0.83923  0.41699  1.0000
  H   H101      1.0  0.90088  0.80094  0.47549  1.0000
  H   H102      1.0  0.92494  0.84874  0.47740  1.0000
  H   H103      1.0  0.81773  0.71445  0.36670  1.0000
  N   N9        1.0  0.83664  0.76572  0.37108  1.0000
  H   H104      1.0  0.81739  0.75535  0.38211  1.0000
  H   H105      1.0  0.84481  0.78514  0.37217  1.0000
  C   C145      1.0  0.64096  0.16573  0.31996  1.0000
  C   C146      1.0  0.58860  0.15925  0.31873  1.0000
  C   C147      1.0  0.59225  0.13681  0.32807  1.0000
  C   C148      1.0  0.61815  0.13998  0.32832  1.0000
  H   H106      1.0  0.57608  0.11804  0.33818  1.0000
  H   H107      1.0  0.62028  0.12357  0.33925  1.0000
  C   C149      1.0  0.56241  0.15562  0.32928  1.0000
  C   C150      1.0  0.51498  0.15966  0.34375  1.0000
  C   C151      1.0  0.52789  0.15700  0.42058  1.0000
  C   C152      1.0  0.55170  0.15550  0.41533  1.0000
  H   H108      1.0  0.52048  0.15741  0.48251  1.0000
  N   N10       1.0  0.56396  0.15514  0.49289  1.0000
  H   H109      1.0  0.58049  0.15447  0.49324  1.0000
  H   H110      1.0  0.55644  0.15544  0.55099  1.0000
  C   C153      1.0  0.82924  0.47616  0.31986  1.0000
  C   C154      1.0  0.83569  0.43026  0.31876  1.0000
  C   C155      1.0  0.85814  0.45635  0.32819  1.0000
  C   C156      1.0  0.85497  0.47908  0.32840  1.0000
  H   H111      1.0  0.87690  0.45894  0.33841  1.0000
  H   H112      1.0  0.87138  0.49762  0.33941  1.0000
  C   C157      1.0  0.83931  0.40769  0.32933  1.0000
  C   C158      1.0  0.83527  0.35623  0.34383  1.0000
  C   C159      1.0  0.83792  0.37180  0.42065  1.0000
  C   C160      1.0  0.83942  0.39710  0.41540  1.0000
  H   H113      1.0  0.83750  0.36398  0.48259  1.0000
  N   N11       1.0  0.83976  0.40972  0.49295  1.0000
  H   H114      1.0  0.84043  0.42692  0.49329  1.0000
  H   H115      1.0  0.83945  0.40190  0.55105  1.0000
  C   C161      1.0  0.51884  0.35398  0.31999  1.0000
  C   C162      1.0  0.56471  0.40636  0.31873  1.0000
  C   C163      1.0  0.53860  0.40269  0.32793  1.0000
  C   C164      1.0  0.51588  0.37679  0.32819  1.0000
  H   H116      1.0  0.53599  0.41886  0.33794  1.0000
  H   H117      1.0  0.49734  0.37465  0.33903  1.0000
  C   C165      1.0  0.58726  0.43256  0.32926  1.0000
  C   C166      1.0  0.63872  0.47998  0.34371  1.0000
  C   C167      1.0  0.62315  0.46707  0.42055  1.0000
  C   C168      1.0  0.59784  0.44326  0.41531  1.0000
  H   H118      1.0  0.63097  0.47448  0.48247  1.0000
  N   N12       1.0  0.58522  0.43102  0.49287  1.0000
  H   H119      1.0  0.56802  0.41449  0.49322  1.0000
  H   H120      1.0  0.59304  0.43853  0.55097  1.0000
