data_image0
_chemical_formula_structural       C2H2C5HC2H3OC4HC2H3OC4HC2H3ON6C21H13C24H15C24H15C24H15N6C4HC2H3OC4HC2H3OC4HC2H3O
_chemical_formula_sum              "C132 H84 O6 N12"
_cell_length_a       45.6635
_cell_length_b       45.6635
_cell_length_c       14.963
_cell_angle_alpha    90
_cell_angle_beta     90
_cell_angle_gamma    120

_space_group_name_H-M_alt    "P 1"
_space_group_IT_number       1

loop_
  _space_group_symop_operation_xyz
  'x, y, z'

loop_
  _atom_site_type_symbol
  _atom_site_label
  _atom_site_symmetry_multiplicity
  _atom_site_fract_x
  _atom_site_fract_y
  _atom_site_fract_z
  _atom_site_occupancy
  C   C1        1.0  0.01193  0.03170  0.33786  1.0000
  C   C2        1.0  0.01069  0.97804  0.34182  1.0000
  H   H1        1.0  0.02528  0.05755  0.33515  1.0000
  H   H2        1.0  0.02306  0.96456  0.34514  1.0000
  C   C3        1.0  0.02986  0.01381  0.33938  1.0000
  C   C4        1.0  0.24592  0.11944  0.31923  1.0000
  C   C5        1.0  0.22898  0.10810  0.23652  1.0000
  C   C6        1.0  0.19320  0.09047  0.23242  1.0000
  C   C7        1.0  0.17474  0.08439  0.31354  1.0000
  H   H3        1.0  0.24268  0.11371  0.17856  1.0000
  C   C8        1.0  0.17722  0.08179  0.14962  1.0000
  C   C9        1.0  0.17309  0.10725  0.10255  1.0000
  H   H4        1.0  0.16251  0.11867  0.14664  1.0000
  H   H5        1.0  0.15573  0.09574  0.04647  1.0000
  H   H6        1.0  0.19737  0.12707  0.07689  1.0000
  O   O1        1.0  0.18336  0.06339  0.10338  1.0000
  C   C10       1.0  0.86974  0.12449  0.31673  1.0000
  C   C11       1.0  0.87749  0.11535  0.23355  1.0000
  C   C12       1.0  0.89500  0.09708  0.22953  1.0000
  C   C13       1.0  0.90447  0.08811  0.31123  1.0000
  H   H7        1.0  0.86924  0.12090  0.17579  1.0000
  C   C14       1.0  0.89981  0.08579  0.14759  1.0000
  C   C15       1.0  0.91893  0.10971  0.07746  1.0000
  H   H8        1.0  0.90350  0.11848  0.04387  1.0000
  H   H9        1.0  0.92712  0.09767  0.02818  1.0000
  H   H10       1.0  0.94146  0.13153  0.10472  1.0000
  O   O2        1.0  0.87588  0.05885  0.12304  1.0000
  C   C16       1.0  0.86314  0.74477  0.32181  1.0000
  C   C17       1.0  0.86719  0.76215  0.24043  1.0000
  C   C18       1.0  0.88571  0.79793  0.23735  1.0000
  C   C19       1.0  0.89960  0.81587  0.31831  1.0000
  H   H11       1.0  0.85716  0.74880  0.18275  1.0000
  C   C20       1.0  0.88793  0.81470  0.15800  1.0000
  C   C21       1.0  0.90490  0.81030  0.08146  1.0000
  H   H12       1.0  0.92823  0.81104  0.10176  1.0000
  H   H13       1.0  0.91150  0.83070  0.03356  1.0000
  H   H14       1.0  0.88854  0.78621  0.04835  1.0000
  O   O3        1.0  0.86333  0.81761  0.14057  1.0000
  N   N1        1.0  0.55623  0.14816  0.28371  1.0000
  N   N2        1.0  0.58444  0.14746  0.28256  1.0000
  N   N3        1.0  0.84278  0.40782  0.27807  1.0000
  N   N4        1.0  0.84332  0.43665  0.27742  1.0000
  N   N5        1.0  0.58237  0.43477  0.28155  1.0000
  N   N6        1.0  0.55344  0.40660  0.28049  1.0000
  C   C22       1.0  0.97611  0.01500  0.33817  1.0000
  C   C23       1.0  0.97492  0.96021  0.34136  1.0000
  C   C24       1.0  0.95813  0.97918  0.34011  1.0000
  C   C25       1.0  0.06612  0.03117  0.33485  1.0000
  C   C26       1.0  0.08645  0.06154  0.38266  1.0000
  C   C27       1.0  0.12200  0.07879  0.37617  1.0000
  C   C28       1.0  0.13869  0.06655  0.32090  1.0000
  C   C29       1.0  0.11849  0.03576  0.27501  1.0000
  C   C30       1.0  0.08300  0.01864  0.28115  1.0000
  C   C31       1.0  0.95854  0.03364  0.33275  1.0000
  C   C32       1.0  0.96943  0.06140  0.27361  1.0000
  C   C33       1.0  0.95191  0.07938  0.26698  1.0000
  C   C34       1.0  0.92256  0.07016  0.31848  1.0000
  C   C35       1.0  0.91207  0.04295  0.37916  1.0000
  C   C36       1.0  0.92957  0.02490  0.38568  1.0000
  C   C37       1.0  0.95642  0.92406  0.33757  1.0000
  C   C38       1.0  0.92806  0.90474  0.39324  1.0000
  C   C39       1.0  0.90977  0.86915  0.38810  1.0000
  C   C40       1.0  0.91878  0.85175  0.32567  1.0000
  C   C41       1.0  0.94735  0.87095  0.27085  1.0000
  C   C42       1.0  0.96581  0.90644  0.27669  1.0000
  H   H15       1.0  0.96114  0.09961  0.22449  1.0000
  H   H16       1.0  0.98998  0.06852  0.23322  1.0000
  H   H17       1.0  0.89109  0.03556  0.41810  1.0000
  H   H18       1.0  0.92108  0.00541  0.43051  1.0000
  H   H19       1.0  0.92066  0.91645  0.43890  1.0000
  H   H20       1.0  0.88924  0.85607  0.42888  1.0000
  H   H21       1.0  0.98586  0.91936  0.23434  1.0000
  H   H22       1.0  0.95514  0.85925  0.22632  1.0000
  H   H23       1.0  0.06959  0.99706  0.24430  1.0000
  H   H24       1.0  0.12940  0.02521  0.23687  1.0000
  H   H25       1.0  0.13561  0.10084  0.41111  1.0000
  H   H26       1.0  0.07555  0.07132  0.42372  1.0000
  H   H27       1.0  0.93228  0.96659  0.33606  1.0000
  C   C43       1.0  0.44309  0.24878  0.34399  1.0000
  C   C44       1.0  0.40745  0.22947  0.34693  1.0000
  C   C45       1.0  0.39043  0.19362  0.34623  1.0000
  C   C46       1.0  0.41005  0.17739  0.34455  1.0000
  C   C47       1.0  0.44579  0.19611  0.34229  1.0000
  C   C48       1.0  0.46173  0.23177  0.34301  1.0000
  C   C49       1.0  0.35435  0.17439  0.34200  1.0000
  C   C50       1.0  0.33390  0.18135  0.39926  1.0000
  C   C51       1.0  0.29835  0.16291  0.39276  1.0000
  C   C52       1.0  0.28191  0.13734  0.32739  1.0000
  C   C53       1.0  0.30246  0.13025  0.27077  1.0000
  C   C54       1.0  0.33793  0.14831  0.27809  1.0000
  C   C55       1.0  0.46094  0.28465  0.33944  1.0000
  C   C56       1.0  0.46117  0.30440  0.41236  1.0000
  C   C57       1.0  0.48494  0.33928  0.41592  1.0000
  C   C58       1.0  0.50906  0.35551  0.34683  1.0000
  C   C59       1.0  0.50684  0.33582  0.27111  1.0000
  C   C60       1.0  0.48342  0.30102  0.26772  1.0000
  C   C61       1.0  0.46610  0.18042  0.33876  1.0000
  C   C62       1.0  0.49369  0.19257  0.27873  1.0000
  C   C63       1.0  0.51724  0.18140  0.28391  1.0000
  C   C64       1.0  0.51403  0.15740  0.34881  1.0000
  C   C65       1.0  0.48508  0.14344  0.40457  1.0000
  C   C66       1.0  0.46152  0.15481  0.39985  1.0000
  H   H28       1.0  0.48531  0.35236  0.47176  1.0000
  H   H29       1.0  0.44594  0.29313  0.46654  1.0000
  H   H30       1.0  0.52406  0.34590  0.22026  1.0000
  H   H31       1.0  0.48436  0.28731  0.21474  1.0000
  H   H32       1.0  0.49786  0.21095  0.23305  1.0000
  H   H33       1.0  0.53790  0.19259  0.24272  1.0000
  H   H34       1.0  0.44215  0.14567  0.44516  1.0000
  H   H35       1.0  0.48143  0.12562  0.45139  1.0000
  H   H36       1.0  0.35171  0.14274  0.23440  1.0000
  H   H37       1.0  0.29184  0.11149  0.22384  1.0000
  H   H38       1.0  0.28460  0.16907  0.43489  1.0000
  H   H39       1.0  0.34474  0.19984  0.44689  1.0000
  H   H40       1.0  0.39384  0.24174  0.34508  1.0000
  H   H41       1.0  0.48763  0.24580  0.34354  1.0000
  H   H42       1.0  0.39816  0.15153  0.34351  1.0000
  C   C67       1.0  0.74233  0.19441  0.34286  1.0000
  C   C68       1.0  0.76139  0.17783  0.34602  1.0000
  C   C69       1.0  0.79723  0.19640  0.34325  1.0000
  C   C70       1.0  0.81376  0.23223  0.33946  1.0000
  C   C71       1.0  0.79529  0.24953  0.33744  1.0000
  C   C72       1.0  0.75962  0.23007  0.34003  1.0000
  C   C73       1.0  0.81610  0.17921  0.33899  1.0000
  C   C74       1.0  0.81041  0.15331  0.40037  1.0000
  C   C75       1.0  0.82852  0.13585  0.39408  1.0000
  C   C76       1.0  0.85224  0.14297  0.32466  1.0000
  C   C77       1.0  0.85797  0.16903  0.26362  1.0000
  C   C78       1.0  0.84040  0.18694  0.27092  1.0000
  C   C79       1.0  0.70642  0.17666  0.33963  1.0000
  C   C80       1.0  0.68692  0.15765  0.41346  1.0000
  C   C81       1.0  0.65210  0.14678  0.41779  1.0000
  C   C82       1.0  0.63566  0.15432  0.34851  1.0000
  C   C83       1.0  0.65512  0.17133  0.27206  1.0000
  C   C84       1.0  0.68987  0.18247  0.26784  1.0000
  C   C85       1.0  0.81119  0.28553  0.33283  1.0000
  C   C86       1.0  0.79882  0.30089  0.27316  1.0000
  C   C87       1.0  0.81000  0.33561  0.27810  1.0000
  C   C88       1.0  0.83416  0.35650  0.34260  1.0000
  C   C89       1.0  0.84837  0.34160  0.39781  1.0000
  C   C90       1.0  0.83701  0.30666  0.39328  1.0000
  H   H43       1.0  0.63919  0.13437  0.47412  1.0000
  H   H44       1.0  0.69835  0.15390  0.46761  1.0000
  H   H45       1.0  0.64491  0.17823  0.22100  1.0000
  H   H46       1.0  0.70340  0.19678  0.21421  1.0000
  H   H47       1.0  0.78022  0.28658  0.22810  1.0000
  H   H48       1.0  0.79856  0.34497  0.23750  1.0000
  H   H49       1.0  0.84632  0.29651  0.43833  1.0000
  H   H50       1.0  0.86635  0.35584  0.44421  1.0000
  H   H51       1.0  0.84497  0.20519  0.22445  1.0000
  H   H52       1.0  0.87539  0.17562  0.21349  1.0000
  H   H53       1.0  0.82340  0.11709  0.43936  1.0000
  H   H54       1.0  0.79317  0.14711  0.45085  1.0000
  H   H55       1.0  0.74895  0.15193  0.34561  1.0000
  H   H56       1.0  0.74578  0.24214  0.34064  1.0000
  H   H57       1.0  0.83962  0.24595  0.33684  1.0000
  C   C91       1.0  0.79629  0.54734  0.34212  1.0000
  C   C92       1.0  0.81261  0.58299  0.34542  1.0000
  C   C93       1.0  0.79378  0.60003  0.34505  1.0000
  C   C94       1.0  0.75794  0.58037  0.34350  1.0000
  C   C95       1.0  0.74090  0.54464  0.34083  1.0000
  C   C96       1.0  0.76062  0.52870  0.34115  1.0000
  C   C97       1.0  0.81053  0.63614  0.34141  1.0000
  C   C98       1.0  0.83827  0.65658  0.39777  1.0000
  C   C99       1.0  0.85504  0.69215  0.39230  1.0000
  C   C100      1.0  0.84522  0.70871  0.32903  1.0000
  C   C101      1.0  0.81724  0.68815  0.27335  1.0000
  C   C102      1.0  0.80024  0.65266  0.27946  1.0000
  C   C103      1.0  0.81427  0.52943  0.33748  1.0000
  C   C104      1.0  0.83349  0.52884  0.41065  1.0000
  C   C105      1.0  0.84448  0.50497  0.41397  1.0000
  C   C106      1.0  0.83669  0.48102  0.34448  1.0000
  C   C107      1.0  0.81943  0.48352  0.26866  1.0000
  C   C108      1.0  0.80819  0.50707  0.26547  1.0000
  C   C109      1.0  0.70490  0.52440  0.33730  1.0000
  C   C110      1.0  0.68938  0.49671  0.27756  1.0000
  C   C111      1.0  0.65460  0.47340  0.28236  1.0000
  C   C112      1.0  0.63381  0.47691  0.34667  1.0000
  C   C113      1.0  0.64890  0.50591  0.40222  1.0000
  C   C114      1.0  0.68388  0.52926  0.39778  1.0000
  H   H58       1.0  0.85712  0.50448  0.46981  1.0000
  H   H59       1.0  0.83749  0.54404  0.46493  1.0000
  H   H60       1.0  0.81226  0.46638  0.21762  1.0000
  H   H61       1.0  0.79362  0.50627  0.21244  1.0000
  H   H62       1.0  0.70355  0.49240  0.23208  1.0000
  H   H63       1.0  0.64506  0.45269  0.24136  1.0000
  H   H64       1.0  0.69415  0.54871  0.44286  1.0000
  H   H65       1.0  0.63473  0.50979  0.44856  1.0000
  H   H66       1.0  0.78061  0.63895  0.23649  1.0000
  H   H67       1.0  0.80852  0.69875  0.22803  1.0000
  H   H68       1.0  0.87521  0.70584  0.43370  1.0000
  H   H69       1.0  0.84636  0.64572  0.44413  1.0000
  H   H70       1.0  0.83848  0.59659  0.34350  1.0000
  H   H71       1.0  0.74875  0.50280  0.34152  1.0000
  H   H72       1.0  0.74394  0.59224  0.34291  1.0000
  N   N7        1.0  0.19305  0.09674  0.38995  1.0000
  N   N8        1.0  0.22612  0.11307  0.39273  1.0000
  N   N9        1.0  0.89539  0.09730  0.38833  1.0000
  N   N10       1.0  0.87920  0.11418  0.39105  1.0000
  N   N11       1.0  0.89445  0.79734  0.39385  1.0000
  N   N12       1.0  0.87759  0.76425  0.39537  1.0000
  C   C115      1.0  0.60206  0.14889  0.35721  1.0000
  C   C116      1.0  0.58762  0.15026  0.43964  1.0000
  C   C117      1.0  0.55701  0.15116  0.44202  1.0000
  C   C118      1.0  0.54106  0.15039  0.35956  1.0000
  H   H73       1.0  0.60067  0.15346  0.49781  1.0000
  C   C119      1.0  0.54536  0.15613  0.52326  1.0000
  C   C120      1.0  0.56056  0.19035  0.55760  1.0000
  H   H74       1.0  0.58615  0.19886  0.58175  1.0000
  H   H75       1.0  0.54546  0.19134  0.61284  1.0000
  H   H76       1.0  0.56165  0.20774  0.50588  1.0000
  O   O4        1.0  0.53789  0.13377  0.57865  1.0000
  C   C121      1.0  0.84222  0.45288  0.35242  1.0000
  C   C122      1.0  0.84120  0.43705  0.43454  1.0000
  C   C123      1.0  0.84056  0.40568  0.43641  1.0000
  C   C124      1.0  0.84108  0.39051  0.35370  1.0000
  H   H77       1.0  0.83832  0.44694  0.49308  1.0000
  C   C125      1.0  0.83598  0.38911  0.51748  1.0000
  C   C126      1.0  0.80221  0.37016  0.55451  1.0000
  H   H78       1.0  0.79406  0.38729  0.58045  1.0000
  H   H79       1.0  0.80180  0.35403  0.60889  1.0000
  H   H80       1.0  0.78424  0.35393  0.50370  1.0000
  O   O5        1.0  0.85892  0.40398  0.57150  1.0000
  C   C127      1.0  0.53715  0.38915  0.35526  1.0000
  C   C128      1.0  0.55291  0.40370  0.43765  1.0000
  C   C129      1.0  0.58442  0.43428  0.43993  1.0000
  C   C130      1.0  0.59970  0.45007  0.35741  1.0000
  H   H81       1.0  0.54295  0.39076  0.49592  1.0000
  C   C131      1.0  0.60094  0.44600  0.52115  1.0000
  C   C132      1.0  0.62009  0.43104  0.55636  1.0000
  H   H82       1.0  0.60308  0.40553  0.58112  1.0000
  H   H83       1.0  0.63621  0.44639  0.61125  1.0000
  H   H84       1.0  0.63638  0.42981  0.50485  1.0000
  O   O6        1.0  0.58610  0.45336  0.57706  1.0000
