data_image0
_chemical_formula_structural       C7H2C2O2C3NC2NCH2CHNHC3NC2NCHCH2NHC5HC4H3C2O2C3H2C2H5NHC3H2CHCH4NHC7H2C2O2C3NC2NCH2CHNHC3NC2NCHCH2NHC5HC4H3C2O2C3H2C2H5NHC3H2CHCH4NHC7H2C2O2C3NC2NCH2CHNHC3NC2NCHCH2NHC5HC4H3C2O2C3H2C2H5NHC3H2CHCH4NHC7H2C2O2C3NC2NCH2CHNHC3NC2NCHCH2NHC5HC4H3C2O2C3H2C2H5NHC3H2CHCH4NH
_chemical_formula_sum              "C176 H120 O16 N32"
_cell_length_a       30.7784
_cell_length_b       30.7784
_cell_length_c       15.0421
_cell_angle_alpha    90
_cell_angle_beta     90
_cell_angle_gamma    90

_space_group_name_H-M_alt    "P 1"
_space_group_IT_number       1

loop_
  _space_group_symop_operation_xyz
  'x, y, z'

loop_
  _atom_site_type_symbol
  _atom_site_label
  _atom_site_symmetry_multiplicity
  _atom_site_fract_x
  _atom_site_fract_y
  _atom_site_fract_z
  _atom_site_occupancy
  C   C1        1.0  0.04195  0.00549  0.31828  1.0000
  C   C2        1.0  0.07142  0.04066  0.33319  1.0000
  C   C3        1.0  0.05395  0.08044  0.36301  1.0000
  C   C4        1.0  0.46652  0.47576  0.31841  1.0000
  C   C5        1.0  0.39152  0.44612  0.31677  1.0000
  C   C6        1.0  0.42093  0.48108  0.33375  1.0000
  C   C7        1.0  0.40694  0.02065  0.37206  1.0000
  H   H1        1.0  0.08661  0.46204  0.25610  1.0000
  H   H2        1.0  0.37540  0.02532  0.39065  1.0000
  C   C8        1.0  0.11704  0.03895  0.31855  1.0000
  C   C9        1.0  0.34588  0.44810  0.33039  1.0000
  O   O1        1.0  0.13884  0.07669  0.30378  1.0000
  O   O2        1.0  0.32487  0.41054  0.35077  1.0000
  C   C10       1.0  0.01000  0.26840  0.24453  1.0000
  C   C11       1.0  0.00984  0.22234  0.24865  1.0000
  C   C12       1.0  0.99667  0.20028  0.32735  1.0000
  N   N1        1.0  0.02448  0.20058  0.17568  1.0000
  C   C13       1.0  0.03884  0.21986  0.09996  1.0000
  C   C14       1.0  0.03979  0.26579  0.09724  1.0000
  N   N2        1.0  0.02510  0.28780  0.16937  1.0000
  C   C15       1.0  0.05517  0.19249  0.02607  1.0000
  H   H3        1.0  0.53212  0.16615  0.01372  1.0000
  H   H4        1.0  0.08594  0.17796  0.04689  1.0000
  C   C16       1.0  0.05616  0.29046  0.01947  1.0000
  H   H5        1.0  0.07628  0.31747  0.04254  1.0000
  N   N3        1.0  0.99527  0.15584  0.32904  1.0000
  H   H6        1.0  0.99563  0.14161  0.27088  1.0000
  C   C17       1.0  0.20693  0.01333  0.25022  1.0000
  C   C18       1.0  0.25260  0.00797  0.24081  1.0000
  C   C19       1.0  0.27739  0.98646  0.30707  1.0000
  N   N4        1.0  0.27104  0.02011  0.16237  1.0000
  C   C20       1.0  0.24878  0.03686  0.09244  1.0000
  C   C21       1.0  0.20334  0.04198  0.10136  1.0000
  N   N5        1.0  0.18477  0.02937  0.17909  1.0000
  C   C22       1.0  0.27231  0.04742  0.00918  1.0000
  H   H7        1.0  0.28913  0.07834  0.01868  1.0000
  C   C23       1.0  0.17529  0.05747  0.02769  1.0000
  H   H8        1.0  0.15590  0.52997  0.00444  1.0000
  H   H9        1.0  0.15298  0.08215  0.05311  1.0000
  N   N6        1.0  0.32137  0.98140  0.29773  1.0000
  H   H10       1.0  0.33608  0.00087  0.25631  1.0000
  C   C24       1.0  0.99646  0.01043  0.33585  1.0000
  C   C25       1.0  0.00961  0.08571  0.38296  1.0000
  C   C26       1.0  0.98049  0.05079  0.36873  1.0000
  C   C27       1.0  0.05560  0.46621  0.27835  1.0000
  C   C28       1.0  0.43577  0.05489  0.38781  1.0000
  H   H11       1.0  0.07418  0.10648  0.37317  1.0000
  C   C29       1.0  0.48247  0.43525  0.28634  1.0000
  C   C30       1.0  0.45348  0.40024  0.27053  1.0000
  C   C31       1.0  0.40879  0.40643  0.28575  1.0000
  C   C32       1.0  0.02696  0.43168  0.26465  1.0000
  H   H12       1.0  0.38823  0.38075  0.27516  1.0000
  H   H13       1.0  0.03907  0.40435  0.23496  1.0000
  H   H14       1.0  0.42349  0.08280  0.41492  1.0000
  C   C33       1.0  0.99559  0.12842  0.40075  1.0000
  C   C34       1.0  0.46786  0.35748  0.25299  1.0000
  O   O3        1.0  0.01005  0.14384  0.47969  1.0000
  O   O4        1.0  0.44245  0.33261  0.19930  1.0000
  C   C35       1.0  0.49767  0.29345  0.31920  1.0000
  C   C36       1.0  0.48550  0.22612  0.40182  1.0000
  C   C37       1.0  0.48760  0.27163  0.39910  1.0000
  H   H15       1.0  0.47713  0.28879  0.45332  1.0000
  H   H16       1.0  0.47304  0.21235  0.45796  1.0000
  C   C38       1.0  0.56208  0.21780  0.60457  1.0000
  C   C39       1.0  0.08354  0.26257  0.62087  1.0000
  H   H17       1.0  0.53059  0.22296  0.57289  1.0000
  H   H18       1.0  0.08217  0.19859  0.55935  1.0000
  H   H19       1.0  0.08702  0.27980  0.55771  1.0000
  H   H20       1.0  0.11605  0.25762  0.64846  1.0000
  H   H21       1.0  0.52821  0.30409  0.65103  1.0000
  N   N7        1.0  0.49291  0.33739  0.31578  1.0000
  H   H22       1.0  0.49707  0.35299  0.37186  1.0000
  C   C40       1.0  0.18509  0.49865  0.32788  1.0000
  C   C41       1.0  0.25482  0.47034  0.38218  1.0000
  C   C42       1.0  0.20977  0.47551  0.39143  1.0000
  H   H23       1.0  0.19540  0.46437  0.44842  1.0000
  H   H24       1.0  0.27130  0.45624  0.43362  1.0000
  C   C43       1.0  0.24213  0.55046  0.59338  1.0000
  H   H25       1.0  0.29683  0.52250  0.66292  1.0000
  C   C44       1.0  0.20067  0.07705  0.61452  1.0000
  H   H26       1.0  0.23271  0.51773  0.57275  1.0000
  H   H27       1.0  0.25968  0.06557  0.53827  1.0000
  H   H28       1.0  0.17966  0.07792  0.55594  1.0000
  H   H29       1.0  0.21003  0.11048  0.63015  1.0000
  N   N8        1.0  0.14166  0.50423  0.34358  1.0000
  H   H30       1.0  0.12807  0.48458  0.38640  1.0000
  C   C45       1.0  0.04195  0.50548  0.31828  1.0000
  C   C46       1.0  0.07142  0.54066  0.33319  1.0000
  C   C47       1.0  0.05395  0.58044  0.36301  1.0000
  C   C48       1.0  0.46652  0.97576  0.31841  1.0000
  C   C49       1.0  0.39152  0.94612  0.31677  1.0000
  C   C50       1.0  0.42093  0.98108  0.33375  1.0000
  C   C51       1.0  0.40694  0.52065  0.37206  1.0000
  H   H31       1.0  0.08661  0.96204  0.25610  1.0000
  H   H32       1.0  0.37540  0.52532  0.39065  1.0000
  C   C52       1.0  0.11704  0.53895  0.31855  1.0000
  C   C53       1.0  0.34588  0.94810  0.33039  1.0000
  O   O5        1.0  0.13884  0.57669  0.30378  1.0000
  O   O6        1.0  0.32487  0.91054  0.35077  1.0000
  C   C54       1.0  0.01000  0.76840  0.24453  1.0000
  C   C55       1.0  0.00984  0.72234  0.24865  1.0000
  C   C56       1.0  0.99667  0.70028  0.32735  1.0000
  N   N9        1.0  0.02448  0.70057  0.17568  1.0000
  C   C57       1.0  0.03884  0.71986  0.09996  1.0000
  C   C58       1.0  0.03979  0.76579  0.09724  1.0000
  N   N10       1.0  0.02510  0.78780  0.16937  1.0000
  C   C59       1.0  0.05517  0.69249  0.02607  1.0000
  H   H33       1.0  0.53212  0.66615  0.01372  1.0000
  H   H34       1.0  0.08594  0.67796  0.04689  1.0000
  C   C60       1.0  0.05616  0.79046  0.01947  1.0000
  H   H35       1.0  0.07628  0.81747  0.04254  1.0000
  N   N11       1.0  0.99527  0.65584  0.32904  1.0000
  H   H36       1.0  0.99563  0.64161  0.27088  1.0000
  C   C61       1.0  0.20693  0.51333  0.25022  1.0000
  C   C62       1.0  0.25260  0.50797  0.24081  1.0000
  C   C63       1.0  0.27739  0.48646  0.30707  1.0000
  N   N12       1.0  0.27104  0.52011  0.16237  1.0000
  C   C64       1.0  0.24878  0.53686  0.09244  1.0000
  C   C65       1.0  0.20334  0.54198  0.10136  1.0000
  N   N13       1.0  0.18477  0.52937  0.17909  1.0000
  C   C66       1.0  0.27231  0.54742  0.00918  1.0000
  H   H37       1.0  0.28913  0.57834  0.01868  1.0000
  C   C67       1.0  0.17529  0.55747  0.02769  1.0000
  H   H38       1.0  0.15590  0.02997  0.00444  1.0000
  H   H39       1.0  0.15298  0.58215  0.05311  1.0000
  N   N14       1.0  0.32137  0.48141  0.29773  1.0000
  H   H40       1.0  0.33608  0.50087  0.25631  1.0000
  C   C68       1.0  0.99646  0.51043  0.33585  1.0000
  C   C69       1.0  0.00961  0.58571  0.38296  1.0000
  C   C70       1.0  0.98049  0.55078  0.36873  1.0000
  C   C71       1.0  0.05560  0.96621  0.27835  1.0000
  C   C72       1.0  0.43577  0.55490  0.38781  1.0000
  H   H41       1.0  0.07418  0.60648  0.37317  1.0000
  C   C73       1.0  0.48247  0.93525  0.28634  1.0000
  C   C74       1.0  0.45348  0.90024  0.27053  1.0000
  C   C75       1.0  0.40879  0.90643  0.28575  1.0000
  C   C76       1.0  0.02696  0.93168  0.26465  1.0000
  H   H42       1.0  0.38823  0.88075  0.27516  1.0000
  H   H43       1.0  0.03907  0.90434  0.23496  1.0000
  H   H44       1.0  0.42349  0.58280  0.41492  1.0000
  C   C77       1.0  0.99559  0.62842  0.40075  1.0000
  C   C78       1.0  0.46786  0.85748  0.25299  1.0000
  O   O7        1.0  0.01005  0.64384  0.47969  1.0000
  O   O8        1.0  0.44245  0.83261  0.19930  1.0000
  C   C79       1.0  0.49767  0.79345  0.31920  1.0000
  C   C80       1.0  0.48550  0.72612  0.40182  1.0000
  C   C81       1.0  0.48760  0.77163  0.39910  1.0000
  H   H45       1.0  0.47713  0.78879  0.45332  1.0000
  H   H46       1.0  0.47304  0.71235  0.45796  1.0000
  C   C82       1.0  0.56208  0.71780  0.60457  1.0000
  C   C83       1.0  0.08354  0.76257  0.62087  1.0000
  H   H47       1.0  0.53059  0.72296  0.57289  1.0000
  H   H48       1.0  0.08217  0.69859  0.55935  1.0000
  H   H49       1.0  0.08702  0.77980  0.55771  1.0000
  H   H50       1.0  0.11605  0.75762  0.64846  1.0000
  H   H51       1.0  0.52821  0.80409  0.65103  1.0000
  N   N15       1.0  0.49291  0.83740  0.31578  1.0000
  H   H52       1.0  0.49707  0.85299  0.37186  1.0000
  C   C84       1.0  0.18509  0.99865  0.32788  1.0000
  C   C85       1.0  0.25482  0.97034  0.38218  1.0000
  C   C86       1.0  0.20977  0.97551  0.39143  1.0000
  H   H53       1.0  0.19540  0.96437  0.44842  1.0000
  H   H54       1.0  0.27130  0.95624  0.43362  1.0000
  C   C87       1.0  0.24213  0.05046  0.59338  1.0000
  H   H55       1.0  0.29683  0.02250  0.66292  1.0000
  C   C88       1.0  0.20067  0.57705  0.61452  1.0000
  H   H56       1.0  0.23271  0.01773  0.57275  1.0000
  H   H57       1.0  0.25968  0.56557  0.53827  1.0000
  H   H58       1.0  0.17966  0.57792  0.55594  1.0000
  H   H59       1.0  0.21003  0.61048  0.63015  1.0000
  N   N16       1.0  0.14166  0.00423  0.34358  1.0000
  H   H60       1.0  0.12807  0.98458  0.38640  1.0000
  C   C89       1.0  0.54195  0.00549  0.31828  1.0000
  C   C90       1.0  0.57142  0.04066  0.33319  1.0000
  C   C91       1.0  0.55396  0.08044  0.36301  1.0000
  C   C92       1.0  0.96652  0.47576  0.31841  1.0000
  C   C93       1.0  0.89152  0.44612  0.31677  1.0000
  C   C94       1.0  0.92093  0.48108  0.33375  1.0000
  C   C95       1.0  0.90694  0.02065  0.37206  1.0000
  H   H61       1.0  0.58661  0.46204  0.25610  1.0000
  H   H62       1.0  0.87540  0.02532  0.39065  1.0000
  C   C96       1.0  0.61704  0.03895  0.31855  1.0000
  C   C97       1.0  0.84588  0.44810  0.33039  1.0000
  O   O9        1.0  0.63884  0.07669  0.30378  1.0000
  O   O10       1.0  0.82487  0.41054  0.35077  1.0000
  C   C98       1.0  0.51000  0.26840  0.24453  1.0000
  C   C99       1.0  0.50984  0.22234  0.24865  1.0000
  C   C100      1.0  0.49667  0.20028  0.32735  1.0000
  N   N17       1.0  0.52448  0.20058  0.17568  1.0000
  C   C101      1.0  0.53885  0.21986  0.09996  1.0000
  C   C102      1.0  0.53980  0.26579  0.09724  1.0000
  N   N18       1.0  0.52510  0.28780  0.16937  1.0000
  C   C103      1.0  0.55517  0.19249  0.02607  1.0000
  H   H63       1.0  0.03212  0.16615  0.01372  1.0000
  H   H64       1.0  0.58594  0.17796  0.04689  1.0000
  C   C104      1.0  0.55616  0.29046  0.01947  1.0000
  H   H65       1.0  0.57628  0.31747  0.04254  1.0000
  N   N19       1.0  0.49527  0.15584  0.32904  1.0000
  H   H66       1.0  0.49563  0.14161  0.27088  1.0000
  C   C105      1.0  0.70693  0.01333  0.25022  1.0000
  C   C106      1.0  0.75260  0.00797  0.24081  1.0000
  C   C107      1.0  0.77739  0.98646  0.30707  1.0000
  N   N20       1.0  0.77103  0.02011  0.16237  1.0000
  C   C108      1.0  0.74878  0.03686  0.09244  1.0000
  C   C109      1.0  0.70334  0.04198  0.10136  1.0000
  N   N21       1.0  0.68477  0.02937  0.17909  1.0000
  C   C110      1.0  0.77231  0.04742  0.00918  1.0000
  H   H67       1.0  0.78913  0.07834  0.01868  1.0000
  C   C111      1.0  0.67529  0.05747  0.02769  1.0000
  H   H68       1.0  0.65590  0.52997  0.00444  1.0000
  H   H69       1.0  0.65298  0.08215  0.05311  1.0000
  N   N22       1.0  0.82136  0.98140  0.29773  1.0000
  H   H70       1.0  0.83608  0.00087  0.25631  1.0000
  C   C112      1.0  0.49646  0.01043  0.33585  1.0000
  C   C113      1.0  0.50961  0.08571  0.38296  1.0000
  C   C114      1.0  0.48049  0.05079  0.36873  1.0000
  C   C115      1.0  0.55560  0.46621  0.27835  1.0000
  C   C116      1.0  0.93577  0.05489  0.38781  1.0000
  H   H71       1.0  0.57418  0.10648  0.37317  1.0000
  C   C117      1.0  0.98247  0.43525  0.28634  1.0000
  C   C118      1.0  0.95348  0.40024  0.27053  1.0000
  C   C119      1.0  0.90879  0.40643  0.28575  1.0000
  C   C120      1.0  0.52696  0.43168  0.26465  1.0000
  H   H72       1.0  0.88823  0.38075  0.27516  1.0000
  H   H73       1.0  0.53907  0.40435  0.23496  1.0000
  H   H74       1.0  0.92349  0.08280  0.41492  1.0000
  C   C121      1.0  0.49559  0.12842  0.40075  1.0000
  C   C122      1.0  0.96786  0.35748  0.25299  1.0000
  O   O11       1.0  0.51005  0.14384  0.47969  1.0000
  O   O12       1.0  0.94245  0.33261  0.19930  1.0000
  C   C123      1.0  0.99767  0.29345  0.31920  1.0000
  C   C124      1.0  0.98550  0.22612  0.40182  1.0000
  C   C125      1.0  0.98760  0.27163  0.39910  1.0000
  H   H75       1.0  0.97713  0.28879  0.45332  1.0000
  H   H76       1.0  0.97304  0.21235  0.45796  1.0000
  C   C126      1.0  0.06207  0.21780  0.60457  1.0000
  C   C127      1.0  0.58354  0.26257  0.62087  1.0000
  H   H77       1.0  0.03059  0.22296  0.57289  1.0000
  H   H78       1.0  0.58218  0.19859  0.55935  1.0000
  H   H79       1.0  0.58702  0.27980  0.55771  1.0000
  H   H80       1.0  0.61605  0.25762  0.64846  1.0000
  H   H81       1.0  0.02821  0.30409  0.65103  1.0000
  N   N23       1.0  0.99291  0.33739  0.31578  1.0000
  H   H82       1.0  0.99706  0.35299  0.37186  1.0000
  C   C128      1.0  0.68509  0.49865  0.32788  1.0000
  C   C129      1.0  0.75482  0.47034  0.38218  1.0000
  C   C130      1.0  0.70977  0.47551  0.39143  1.0000
  H   H83       1.0  0.69540  0.46437  0.44842  1.0000
  H   H84       1.0  0.77130  0.45624  0.43362  1.0000
  C   C131      1.0  0.74213  0.55046  0.59338  1.0000
  H   H85       1.0  0.79683  0.52250  0.66292  1.0000
  C   C132      1.0  0.70068  0.07705  0.61452  1.0000
  H   H86       1.0  0.73271  0.51773  0.57275  1.0000
  H   H87       1.0  0.75968  0.06557  0.53827  1.0000
  H   H88       1.0  0.67966  0.07792  0.55594  1.0000
  H   H89       1.0  0.71003  0.11048  0.63015  1.0000
  N   N24       1.0  0.64166  0.50423  0.34358  1.0000
  H   H90       1.0  0.62807  0.48458  0.38640  1.0000
  C   C133      1.0  0.54195  0.50548  0.31828  1.0000
  C   C134      1.0  0.57142  0.54066  0.33319  1.0000
  C   C135      1.0  0.55396  0.58044  0.36301  1.0000
  C   C136      1.0  0.96652  0.97576  0.31841  1.0000
  C   C137      1.0  0.89152  0.94612  0.31677  1.0000
  C   C138      1.0  0.92093  0.98108  0.33375  1.0000
  C   C139      1.0  0.90694  0.52065  0.37206  1.0000
  H   H91       1.0  0.58661  0.96204  0.25610  1.0000
  H   H92       1.0  0.87540  0.52532  0.39065  1.0000
  C   C140      1.0  0.61704  0.53895  0.31855  1.0000
  C   C141      1.0  0.84588  0.94810  0.33039  1.0000
  O   O13       1.0  0.63884  0.57669  0.30378  1.0000
  O   O14       1.0  0.82487  0.91054  0.35077  1.0000
  C   C142      1.0  0.51000  0.76840  0.24453  1.0000
  C   C143      1.0  0.50984  0.72234  0.24865  1.0000
  C   C144      1.0  0.49667  0.70028  0.32735  1.0000
  N   N25       1.0  0.52448  0.70057  0.17568  1.0000
  C   C145      1.0  0.53885  0.71986  0.09996  1.0000
  C   C146      1.0  0.53980  0.76579  0.09724  1.0000
  N   N26       1.0  0.52510  0.78780  0.16937  1.0000
  C   C147      1.0  0.55517  0.69249  0.02607  1.0000
  H   H93       1.0  0.03212  0.66615  0.01372  1.0000
  H   H94       1.0  0.58594  0.67796  0.04689  1.0000
  C   C148      1.0  0.55616  0.79046  0.01947  1.0000
  H   H95       1.0  0.57628  0.81747  0.04254  1.0000
  N   N27       1.0  0.49527  0.65584  0.32904  1.0000
  H   H96       1.0  0.49563  0.64161  0.27088  1.0000
  C   C149      1.0  0.70693  0.51333  0.25022  1.0000
  C   C150      1.0  0.75260  0.50797  0.24081  1.0000
  C   C151      1.0  0.77739  0.48646  0.30707  1.0000
  N   N28       1.0  0.77103  0.52011  0.16237  1.0000
  C   C152      1.0  0.74878  0.53686  0.09244  1.0000
  C   C153      1.0  0.70334  0.54198  0.10136  1.0000
  N   N29       1.0  0.68477  0.52937  0.17909  1.0000
  C   C154      1.0  0.77231  0.54742  0.00918  1.0000
  H   H97       1.0  0.78913  0.57834  0.01868  1.0000
  C   C155      1.0  0.67529  0.55747  0.02769  1.0000
  H   H98       1.0  0.65590  0.02997  0.00444  1.0000
  H   H99       1.0  0.65298  0.58215  0.05311  1.0000
  N   N30       1.0  0.82136  0.48141  0.29773  1.0000
  H   H100      1.0  0.83608  0.50087  0.25631  1.0000
  C   C156      1.0  0.49646  0.51043  0.33585  1.0000
  C   C157      1.0  0.50961  0.58571  0.38296  1.0000
  C   C158      1.0  0.48049  0.55078  0.36873  1.0000
  C   C159      1.0  0.55560  0.96621  0.27835  1.0000
  C   C160      1.0  0.93577  0.55490  0.38781  1.0000
  H   H101      1.0  0.57418  0.60648  0.37317  1.0000
  C   C161      1.0  0.98247  0.93525  0.28634  1.0000
  C   C162      1.0  0.95348  0.90024  0.27053  1.0000
  C   C163      1.0  0.90879  0.90643  0.28575  1.0000
  C   C164      1.0  0.52696  0.93168  0.26465  1.0000
  H   H102      1.0  0.88823  0.88075  0.27516  1.0000
  H   H103      1.0  0.53907  0.90434  0.23496  1.0000
  H   H104      1.0  0.92349  0.58280  0.41492  1.0000
  C   C165      1.0  0.49559  0.62842  0.40075  1.0000
  C   C166      1.0  0.96786  0.85748  0.25299  1.0000
  O   O15       1.0  0.51005  0.64384  0.47969  1.0000
  O   O16       1.0  0.94245  0.83261  0.19930  1.0000
  C   C167      1.0  0.99767  0.79345  0.31920  1.0000
  C   C168      1.0  0.98550  0.72612  0.40182  1.0000
  C   C169      1.0  0.98760  0.77163  0.39910  1.0000
  H   H105      1.0  0.97713  0.78879  0.45332  1.0000
  H   H106      1.0  0.97304  0.71235  0.45796  1.0000
  C   C170      1.0  0.06207  0.71780  0.60457  1.0000
  C   C171      1.0  0.58354  0.76257  0.62087  1.0000
  H   H107      1.0  0.03059  0.72296  0.57289  1.0000
  H   H108      1.0  0.58218  0.69859  0.55935  1.0000
  H   H109      1.0  0.58702  0.77980  0.55771  1.0000
  H   H110      1.0  0.61605  0.75762  0.64846  1.0000
  H   H111      1.0  0.02821  0.80409  0.65103  1.0000
  N   N31       1.0  0.99291  0.83740  0.31578  1.0000
  H   H112      1.0  0.99706  0.85299  0.37186  1.0000
  C   C172      1.0  0.68509  0.99865  0.32788  1.0000
  C   C173      1.0  0.75482  0.97034  0.38218  1.0000
  C   C174      1.0  0.70977  0.97551  0.39143  1.0000
  H   H113      1.0  0.69540  0.96437  0.44842  1.0000
  H   H114      1.0  0.77130  0.95624  0.43362  1.0000
  C   C175      1.0  0.74213  0.05046  0.59338  1.0000
  H   H115      1.0  0.79683  0.02250  0.66292  1.0000
  C   C176      1.0  0.70068  0.57705  0.61452  1.0000
  H   H116      1.0  0.73271  0.01773  0.57275  1.0000
  H   H117      1.0  0.75968  0.56557  0.53827  1.0000
  H   H118      1.0  0.67966  0.57792  0.55594  1.0000
  H   H119      1.0  0.71003  0.61048  0.63015  1.0000
  N   N32       1.0  0.64166  0.00423  0.34358  1.0000
  H   H120      1.0  0.62807  0.98458  0.38640  1.0000
