data_image0
_chemical_formula_structural       SiC12H9C5NC2NHOHNHNC2NHOHC12H6CHCO4C3H2NHC6H2NHNHSiC12H9C5NC2NHOHNHNC2NHOHC12H6CHCO4C3H2NHC6H2NHNHSiC12H9C5NC2NHOHNHNC2NHOHC12H6CHCO4C3H2NHC6H2NHNHSiC12H9C5NC2NHOHNHNC2NHOHC12H6CHCO4C3H2NHC6H2NHNH
_chemical_formula_sum              "Si4 C176 H112 N32 O24"
_cell_length_a       29.4318
_cell_length_b       29.4301
_cell_length_c       15.0185
_cell_angle_alpha    90
_cell_angle_beta     90
_cell_angle_gamma    90.238

_space_group_name_H-M_alt    "P 1"
_space_group_IT_number       1

loop_
  _space_group_symop_operation_xyz
  'x, y, z'

loop_
  _atom_site_type_symbol
  _atom_site_label
  _atom_site_symmetry_multiplicity
  _atom_site_fract_x
  _atom_site_fract_y
  _atom_site_fract_z
  _atom_site_occupancy
  Si  Si1       1.0  0.50440  0.50444  0.06123  1.0000
  C   C1        1.0  0.49838  0.45715  0.12066  1.0000
  C   C2        1.0  0.00921  0.04212  0.14363  1.0000
  C   C3        1.0  0.47131  0.04884  0.20034  1.0000
  C   C4        1.0  0.47593  0.07120  0.28241  1.0000
  C   C5        1.0  0.01821  0.08931  0.30987  1.0000
  C   C6        1.0  0.05601  0.08308  0.25301  1.0000
  C   C7        1.0  0.05177  0.05942  0.17195  1.0000
  C   C8        1.0  0.03572  0.44218  0.17232  1.0000
  C   C9        1.0  0.03038  0.40819  0.23695  1.0000
  C   C10       1.0  0.48763  0.38756  0.25214  1.0000
  C   C11       1.0  0.45028  0.40261  0.20076  1.0000
  C   C12       1.0  0.45543  0.43700  0.13646  1.0000
  H   H1        1.0  0.44785  0.07408  0.32215  1.0000
  H   H2        1.0  0.44006  0.03548  0.18507  1.0000
  H   H3        1.0  0.08740  0.09505  0.27066  1.0000
  H   H4        1.0  0.08076  0.05328  0.13650  1.0000
  H   H5        1.0  0.06715  0.45701  0.16631  1.0000
  H   H6        1.0  0.05804  0.39974  0.27463  1.0000
  H   H7        1.0  0.41867  0.38870  0.20961  1.0000
  H   H8        1.0  0.42696  0.44810  0.10416  1.0000
  H   H9        1.0  0.45721  0.08690  0.02122  1.0000
  C   C13       1.0  0.02168  0.11205  0.39327  1.0000
  C   C14       1.0  0.48249  0.35136  0.31439  1.0000
  C   C15       1.0  0.00557  0.27665  0.35023  1.0000
  C   C16       1.0  0.99034  0.24513  0.28505  1.0000
  C   C17       1.0  0.48174  0.19941  0.31106  1.0000
  N   N1        1.0  0.46558  0.17041  0.24811  1.0000
  C   C18       1.0  0.45827  0.18201  0.16219  1.0000
  C   C19       1.0  0.96824  0.22658  0.13559  1.0000
  N   N2        1.0  0.98372  0.25664  0.19742  1.0000
  H   H10       1.0  0.44631  0.15848  0.11801  1.0000
  O   O1        1.0  0.96222  0.23919  0.04975  1.0000
  H   H11       1.0  0.99018  0.28734  0.17688  1.0000
  N   N3        1.0  0.01594  0.32022  0.32804  1.0000
  H   H12       1.0  0.04422  0.32317  0.29481  1.0000
  N   N4        1.0  0.29749  0.98477  0.25706  1.0000
  C   C20       1.0  0.27812  0.96177  0.18869  1.0000
  C   C21       1.0  0.23065  0.96267  0.17950  1.0000
  N   N5        1.0  0.20555  0.98625  0.23982  1.0000
  H   H13       1.0  0.29796  0.94412  0.14501  1.0000
  O   O2        1.0  0.21042  0.94014  0.11158  1.0000
  H   H14       1.0  0.17267  0.98640  0.23211  1.0000
  C   C22       1.0  0.10849  0.49504  0.50813  1.0000
  C   C23       1.0  0.08920  0.45548  0.54625  1.0000
  C   C24       1.0  0.05948  0.45807  0.61928  1.0000
  C   C25       1.0  0.04803  0.50042  0.65796  1.0000
  C   C26       1.0  0.06673  0.04007  0.61912  1.0000
  C   C27       1.0  0.09743  0.03725  0.54768  1.0000
  C   C28       1.0  0.46202  0.01622  0.65837  1.0000
  C   C29       1.0  0.44625  0.06119  0.64735  1.0000
  C   C30       1.0  0.41618  0.07241  0.57813  1.0000
  C   C31       1.0  0.40150  0.03963  0.51520  1.0000
  C   C32       1.0  0.41823  0.49488  0.52523  1.0000
  C   C33       1.0  0.44783  0.48342  0.59513  1.0000
  H   H15       1.0  0.45979  0.45081  0.59742  1.0000
  H   H16       1.0  0.41034  0.47003  0.48028  1.0000
  H   H17       1.0  0.40528  0.10532  0.57435  1.0000
  H   H18       1.0  0.05810  0.07171  0.64177  1.0000
  H   H19       1.0  0.04502  0.42840  0.64107  1.0000
  H   H20       1.0  0.09581  0.42412  0.51987  1.0000
  C   C34       1.0  0.36910  0.05191  0.44834  1.0000
  H   H21       1.0  0.11186  0.06678  0.52579  1.0000
  C   C35       1.0  0.14068  0.49132  0.43733  1.0000
  O   O3        1.0  0.44052  0.34319  0.34826  1.0000
  O   O4        1.0  0.06360  0.12270  0.42452  1.0000
  O   O5        1.0  0.36264  0.09668  0.43129  1.0000
  O   O6        1.0  0.16592  0.45285  0.43512  1.0000
  C   C36       1.0  0.49024  0.18441  0.39929  1.0000
  C   C37       1.0  0.50471  0.21699  0.46281  1.0000
  C   C38       1.0  0.01225  0.26248  0.43877  1.0000
  H   H22       1.0  0.02389  0.28495  0.48562  1.0000
  H   H23       1.0  0.51162  0.20730  0.52682  1.0000
  N   N6        1.0  0.48735  0.13901  0.42221  1.0000
  H   H24       1.0  0.48199  0.13510  0.48581  1.0000
  C   C39       1.0  0.19892  0.03395  0.37255  1.0000
  C   C40       1.0  0.22497  0.01013  0.30834  1.0000
  C   C41       1.0  0.27319  0.00928  0.31712  1.0000
  C   C42       1.0  0.29536  0.03223  0.38794  1.0000
  C   C43       1.0  0.26857  0.05782  0.44772  1.0000
  C   C44       1.0  0.22124  0.05920  0.43953  1.0000
  H   H25       1.0  0.20284  0.07457  0.48886  1.0000
  H   H26       1.0  0.28280  0.07215  0.50323  1.0000
  N   N7        1.0  0.15338  0.02654  0.38345  1.0000
  H   H27       1.0  0.13535  0.05412  0.38520  1.0000
  N   N8        1.0  0.33938  0.02195  0.41027  1.0000
  H   H28       1.0  0.34481  0.98964  0.41812  1.0000
  Si  Si2       1.0  0.50440  0.00444  0.06123  1.0000
  C   C45       1.0  0.49838  0.95715  0.12066  1.0000
  C   C46       1.0  0.00921  0.54212  0.14363  1.0000
  C   C47       1.0  0.47132  0.54884  0.20034  1.0000
  C   C48       1.0  0.47593  0.57120  0.28241  1.0000
  C   C49       1.0  0.01821  0.58931  0.30987  1.0000
  C   C50       1.0  0.05601  0.58308  0.25301  1.0000
  C   C51       1.0  0.05177  0.55942  0.17195  1.0000
  C   C52       1.0  0.03572  0.94218  0.17232  1.0000
  C   C53       1.0  0.03038  0.90819  0.23695  1.0000
  C   C54       1.0  0.48763  0.88755  0.25214  1.0000
  C   C55       1.0  0.45028  0.90261  0.20076  1.0000
  C   C56       1.0  0.45543  0.93700  0.13646  1.0000
  H   H29       1.0  0.44785  0.57408  0.32215  1.0000
  H   H30       1.0  0.44006  0.53548  0.18507  1.0000
  H   H31       1.0  0.08740  0.59505  0.27066  1.0000
  H   H32       1.0  0.08076  0.55329  0.13650  1.0000
  H   H33       1.0  0.06715  0.95701  0.16631  1.0000
  H   H34       1.0  0.05804  0.89974  0.27463  1.0000
  H   H35       1.0  0.41867  0.88870  0.20961  1.0000
  H   H36       1.0  0.42696  0.94810  0.10416  1.0000
  H   H37       1.0  0.45721  0.58690  0.02122  1.0000
  C   C57       1.0  0.02168  0.61205  0.39327  1.0000
  C   C58       1.0  0.48249  0.85136  0.31439  1.0000
  C   C59       1.0  0.00557  0.77665  0.35023  1.0000
  C   C60       1.0  0.99034  0.74513  0.28505  1.0000
  C   C61       1.0  0.48174  0.69941  0.31106  1.0000
  N   N9        1.0  0.46558  0.67041  0.24811  1.0000
  C   C62       1.0  0.45827  0.68201  0.16219  1.0000
  C   C63       1.0  0.96824  0.72658  0.13559  1.0000
  N   N10       1.0  0.98372  0.75664  0.19742  1.0000
  H   H38       1.0  0.44631  0.65848  0.11801  1.0000
  O   O7        1.0  0.96222  0.73918  0.04975  1.0000
  H   H39       1.0  0.99018  0.78733  0.17688  1.0000
  N   N11       1.0  0.01594  0.82022  0.32804  1.0000
  H   H40       1.0  0.04422  0.82317  0.29481  1.0000
  N   N12       1.0  0.29749  0.48477  0.25706  1.0000
  C   C64       1.0  0.27812  0.46177  0.18869  1.0000
  C   C65       1.0  0.23065  0.46267  0.17950  1.0000
  N   N13       1.0  0.20555  0.48625  0.23982  1.0000
  H   H41       1.0  0.29796  0.44412  0.14501  1.0000
  O   O8        1.0  0.21042  0.44014  0.11158  1.0000
  H   H42       1.0  0.17267  0.48640  0.23211  1.0000
  C   C66       1.0  0.10849  0.99504  0.50814  1.0000
  C   C67       1.0  0.08920  0.95548  0.54625  1.0000
  C   C68       1.0  0.05948  0.95807  0.61928  1.0000
  C   C69       1.0  0.04803  0.00042  0.65796  1.0000
  C   C70       1.0  0.06673  0.54007  0.61912  1.0000
  C   C71       1.0  0.09743  0.53725  0.54768  1.0000
  C   C72       1.0  0.46202  0.51622  0.65837  1.0000
  C   C73       1.0  0.44625  0.56119  0.64735  1.0000
  C   C74       1.0  0.41618  0.57241  0.57813  1.0000
  C   C75       1.0  0.40150  0.53963  0.51520  1.0000
  C   C76       1.0  0.41823  0.99487  0.52523  1.0000
  C   C77       1.0  0.44783  0.98342  0.59513  1.0000
  H   H43       1.0  0.45979  0.95081  0.59742  1.0000
  H   H44       1.0  0.41033  0.97003  0.48028  1.0000
  H   H45       1.0  0.40528  0.60532  0.57435  1.0000
  H   H46       1.0  0.05810  0.57172  0.64177  1.0000
  H   H47       1.0  0.04502  0.92840  0.64107  1.0000
  H   H48       1.0  0.09581  0.92412  0.51987  1.0000
  C   C78       1.0  0.36910  0.55191  0.44834  1.0000
  H   H49       1.0  0.11186  0.56678  0.52579  1.0000
  C   C79       1.0  0.14068  0.99132  0.43733  1.0000
  O   O9        1.0  0.44052  0.84318  0.34826  1.0000
  O   O10       1.0  0.06360  0.62270  0.42452  1.0000
  O   O11       1.0  0.36264  0.59668  0.43129  1.0000
  O   O12       1.0  0.16592  0.95285  0.43512  1.0000
  C   C80       1.0  0.49024  0.68441  0.39929  1.0000
  C   C81       1.0  0.50471  0.71699  0.46281  1.0000
  C   C82       1.0  0.01225  0.76248  0.43877  1.0000
  H   H50       1.0  0.02389  0.78495  0.48562  1.0000
  H   H51       1.0  0.51162  0.70730  0.52682  1.0000
  N   N14       1.0  0.48735  0.63901  0.42221  1.0000
  H   H52       1.0  0.48198  0.63510  0.48581  1.0000
  C   C83       1.0  0.19892  0.53395  0.37255  1.0000
  C   C84       1.0  0.22497  0.51013  0.30834  1.0000
  C   C85       1.0  0.27319  0.50928  0.31712  1.0000
  C   C86       1.0  0.29536  0.53223  0.38794  1.0000
  C   C87       1.0  0.26858  0.55782  0.44772  1.0000
  C   C88       1.0  0.22124  0.55920  0.43953  1.0000
  H   H53       1.0  0.20284  0.57457  0.48886  1.0000
  H   H54       1.0  0.28280  0.57215  0.50323  1.0000
  N   N15       1.0  0.15338  0.52654  0.38345  1.0000
  H   H55       1.0  0.13535  0.55412  0.38520  1.0000
  N   N16       1.0  0.33938  0.52195  0.41027  1.0000
  H   H56       1.0  0.34481  0.48964  0.41812  1.0000
  Si  Si3       1.0  0.00440  0.50444  0.06123  1.0000
  C   C89       1.0  0.99838  0.45715  0.12066  1.0000
  C   C90       1.0  0.50922  0.04212  0.14363  1.0000
  C   C91       1.0  0.97132  0.04884  0.20034  1.0000
  C   C92       1.0  0.97593  0.07120  0.28241  1.0000
  C   C93       1.0  0.51821  0.08931  0.30987  1.0000
  C   C94       1.0  0.55601  0.08308  0.25301  1.0000
  C   C95       1.0  0.55177  0.05942  0.17195  1.0000
  C   C96       1.0  0.53572  0.44218  0.17232  1.0000
  C   C97       1.0  0.53038  0.40819  0.23695  1.0000
  C   C98       1.0  0.98763  0.38756  0.25214  1.0000
  C   C99       1.0  0.95029  0.40261  0.20076  1.0000
  C   C100      1.0  0.95543  0.43700  0.13646  1.0000
  H   H57       1.0  0.94785  0.07408  0.32215  1.0000
  H   H58       1.0  0.94006  0.03548  0.18507  1.0000
  H   H59       1.0  0.58741  0.09505  0.27066  1.0000
  H   H60       1.0  0.58076  0.05328  0.13650  1.0000
  H   H61       1.0  0.56715  0.45701  0.16631  1.0000
  H   H62       1.0  0.55804  0.39974  0.27463  1.0000
  H   H63       1.0  0.91868  0.38870  0.20961  1.0000
  H   H64       1.0  0.92696  0.44810  0.10416  1.0000
  H   H65       1.0  0.95721  0.08690  0.02122  1.0000
  C   C101      1.0  0.52169  0.11205  0.39327  1.0000
  C   C102      1.0  0.98249  0.35136  0.31439  1.0000
  C   C103      1.0  0.50557  0.27665  0.35023  1.0000
  C   C104      1.0  0.49034  0.24513  0.28505  1.0000
  C   C105      1.0  0.98174  0.19941  0.31106  1.0000
  N   N17       1.0  0.96558  0.17041  0.24811  1.0000
  C   C106      1.0  0.95827  0.18201  0.16219  1.0000
  C   C107      1.0  0.46824  0.22658  0.13559  1.0000
  N   N18       1.0  0.48372  0.25664  0.19742  1.0000
  H   H66       1.0  0.94631  0.15848  0.11801  1.0000
  O   O13       1.0  0.46222  0.23919  0.04975  1.0000
  H   H67       1.0  0.49018  0.28734  0.17688  1.0000
  N   N19       1.0  0.51594  0.32022  0.32804  1.0000
  H   H68       1.0  0.54422  0.32317  0.29481  1.0000
  N   N20       1.0  0.79749  0.98477  0.25706  1.0000
  C   C108      1.0  0.77812  0.96177  0.18869  1.0000
  C   C109      1.0  0.73065  0.96267  0.17950  1.0000
  N   N21       1.0  0.70555  0.98625  0.23982  1.0000
  H   H69       1.0  0.79796  0.94412  0.14501  1.0000
  O   O14       1.0  0.71042  0.94014  0.11158  1.0000
  H   H70       1.0  0.67268  0.98640  0.23211  1.0000
  C   C110      1.0  0.60849  0.49504  0.50813  1.0000
  C   C111      1.0  0.58920  0.45548  0.54625  1.0000
  C   C112      1.0  0.55948  0.45807  0.61928  1.0000
  C   C113      1.0  0.54802  0.50042  0.65796  1.0000
  C   C114      1.0  0.56673  0.04007  0.61912  1.0000
  C   C115      1.0  0.59743  0.03725  0.54768  1.0000
  C   C116      1.0  0.96202  0.01622  0.65837  1.0000
  C   C117      1.0  0.94625  0.06119  0.64735  1.0000
  C   C118      1.0  0.91618  0.07241  0.57813  1.0000
  C   C119      1.0  0.90150  0.03963  0.51520  1.0000
  C   C120      1.0  0.91823  0.49488  0.52523  1.0000
  C   C121      1.0  0.94783  0.48342  0.59513  1.0000
  H   H71       1.0  0.95979  0.45081  0.59742  1.0000
  H   H72       1.0  0.91034  0.47003  0.48028  1.0000
  H   H73       1.0  0.90527  0.10532  0.57435  1.0000
  H   H74       1.0  0.55810  0.07171  0.64177  1.0000
  H   H75       1.0  0.54502  0.42840  0.64107  1.0000
  H   H76       1.0  0.59581  0.42412  0.51987  1.0000
  C   C122      1.0  0.86910  0.05191  0.44834  1.0000
  H   H77       1.0  0.61186  0.06678  0.52579  1.0000
  C   C123      1.0  0.64068  0.49132  0.43733  1.0000
  O   O15       1.0  0.94052  0.34319  0.34826  1.0000
  O   O16       1.0  0.56360  0.12270  0.42452  1.0000
  O   O17       1.0  0.86264  0.09668  0.43129  1.0000
  O   O18       1.0  0.66592  0.45285  0.43512  1.0000
  C   C124      1.0  0.99024  0.18441  0.39929  1.0000
  C   C125      1.0  0.00471  0.21699  0.46281  1.0000
  C   C126      1.0  0.51225  0.26248  0.43877  1.0000
  H   H78       1.0  0.52389  0.28495  0.48562  1.0000
  H   H79       1.0  0.01162  0.20730  0.52682  1.0000
  N   N22       1.0  0.98735  0.13901  0.42221  1.0000
  H   H80       1.0  0.98198  0.13510  0.48581  1.0000
  C   C127      1.0  0.69891  0.03395  0.37255  1.0000
  C   C128      1.0  0.72497  0.01013  0.30834  1.0000
  C   C129      1.0  0.77319  0.00928  0.31712  1.0000
  C   C130      1.0  0.79536  0.03223  0.38794  1.0000
  C   C131      1.0  0.76858  0.05782  0.44772  1.0000
  C   C132      1.0  0.72124  0.05920  0.43953  1.0000
  H   H81       1.0  0.70285  0.07457  0.48886  1.0000
  H   H82       1.0  0.78280  0.07215  0.50323  1.0000
  N   N23       1.0  0.65338  0.02654  0.38345  1.0000
  H   H83       1.0  0.63535  0.05412  0.38520  1.0000
  N   N24       1.0  0.83938  0.02195  0.41027  1.0000
  H   H84       1.0  0.84481  0.98964  0.41812  1.0000
  Si  Si4       1.0  0.00440  0.00444  0.06123  1.0000
  C   C133      1.0  0.99838  0.95715  0.12066  1.0000
  C   C134      1.0  0.50921  0.54212  0.14363  1.0000
  C   C135      1.0  0.97132  0.54884  0.20034  1.0000
  C   C136      1.0  0.97593  0.57120  0.28241  1.0000
  C   C137      1.0  0.51821  0.58931  0.30987  1.0000
  C   C138      1.0  0.55601  0.58308  0.25301  1.0000
  C   C139      1.0  0.55177  0.55942  0.17195  1.0000
  C   C140      1.0  0.53572  0.94218  0.17232  1.0000
  C   C141      1.0  0.53038  0.90819  0.23695  1.0000
  C   C142      1.0  0.98763  0.88755  0.25214  1.0000
  C   C143      1.0  0.95028  0.90261  0.20076  1.0000
  C   C144      1.0  0.95543  0.93700  0.13646  1.0000
  H   H85       1.0  0.94785  0.57408  0.32215  1.0000
  H   H86       1.0  0.94006  0.53548  0.18507  1.0000
  H   H87       1.0  0.58740  0.59505  0.27066  1.0000
  H   H88       1.0  0.58076  0.55329  0.13650  1.0000
  H   H89       1.0  0.56715  0.95701  0.16631  1.0000
  H   H90       1.0  0.55804  0.89974  0.27463  1.0000
  H   H91       1.0  0.91867  0.88870  0.20961  1.0000
  H   H92       1.0  0.92696  0.94810  0.10416  1.0000
  H   H93       1.0  0.95721  0.58690  0.02122  1.0000
  C   C145      1.0  0.52168  0.61205  0.39327  1.0000
  C   C146      1.0  0.98249  0.85136  0.31439  1.0000
  C   C147      1.0  0.50557  0.77665  0.35023  1.0000
  C   C148      1.0  0.49034  0.74513  0.28505  1.0000
  C   C149      1.0  0.98174  0.69941  0.31106  1.0000
  N   N25       1.0  0.96558  0.67041  0.24811  1.0000
  C   C150      1.0  0.95827  0.68201  0.16219  1.0000
  C   C151      1.0  0.46824  0.72658  0.13559  1.0000
  N   N26       1.0  0.48372  0.75664  0.19742  1.0000
  H   H94       1.0  0.94631  0.65848  0.11801  1.0000
  O   O19       1.0  0.46222  0.73918  0.04975  1.0000
  H   H95       1.0  0.49018  0.78733  0.17688  1.0000
  N   N27       1.0  0.51594  0.82022  0.32804  1.0000
  H   H96       1.0  0.54422  0.82317  0.29481  1.0000
  N   N28       1.0  0.79749  0.48477  0.25706  1.0000
  C   C152      1.0  0.77812  0.46177  0.18869  1.0000
  C   C153      1.0  0.73065  0.46267  0.17950  1.0000
  N   N29       1.0  0.70555  0.48625  0.23982  1.0000
  H   H97       1.0  0.79796  0.44412  0.14501  1.0000
  O   O20       1.0  0.71042  0.44014  0.11158  1.0000
  H   H98       1.0  0.67268  0.48640  0.23211  1.0000
  C   C154      1.0  0.60849  0.99504  0.50814  1.0000
  C   C155      1.0  0.58920  0.95548  0.54625  1.0000
  C   C156      1.0  0.55948  0.95807  0.61928  1.0000
  C   C157      1.0  0.54803  0.00042  0.65796  1.0000
  C   C158      1.0  0.56673  0.54007  0.61912  1.0000
  C   C159      1.0  0.59743  0.53725  0.54768  1.0000
  C   C160      1.0  0.96202  0.51622  0.65837  1.0000
  C   C161      1.0  0.94625  0.56119  0.64735  1.0000
  C   C162      1.0  0.91618  0.57241  0.57813  1.0000
  C   C163      1.0  0.90150  0.53963  0.51520  1.0000
  C   C164      1.0  0.91823  0.99487  0.52523  1.0000
  C   C165      1.0  0.94783  0.98342  0.59513  1.0000
  H   H99       1.0  0.95979  0.95081  0.59742  1.0000
  H   H100      1.0  0.91034  0.97003  0.48028  1.0000
  H   H101      1.0  0.90528  0.60532  0.57435  1.0000
  H   H102      1.0  0.55810  0.57172  0.64177  1.0000
  H   H103      1.0  0.54502  0.92840  0.64107  1.0000
  H   H104      1.0  0.59581  0.92412  0.51987  1.0000
  C   C166      1.0  0.86910  0.55191  0.44834  1.0000
  H   H105      1.0  0.61186  0.56678  0.52579  1.0000
  C   C167      1.0  0.64068  0.99132  0.43733  1.0000
  O   O21       1.0  0.94052  0.84318  0.34826  1.0000
  O   O22       1.0  0.56361  0.62270  0.42452  1.0000
  O   O23       1.0  0.86264  0.59668  0.43129  1.0000
  O   O24       1.0  0.66592  0.95285  0.43512  1.0000
  C   C168      1.0  0.99024  0.68441  0.39929  1.0000
  C   C169      1.0  0.00471  0.71699  0.46281  1.0000
  C   C170      1.0  0.51225  0.76248  0.43877  1.0000
  H   H106      1.0  0.52389  0.78495  0.48562  1.0000
  H   H107      1.0  0.01162  0.70730  0.52682  1.0000
  N   N30       1.0  0.98735  0.63901  0.42221  1.0000
  H   H108      1.0  0.98199  0.63510  0.48581  1.0000
  C   C171      1.0  0.69892  0.53395  0.37255  1.0000
  C   C172      1.0  0.72497  0.51013  0.30834  1.0000
  C   C173      1.0  0.77319  0.50928  0.31712  1.0000
  C   C174      1.0  0.79536  0.53223  0.38794  1.0000
  C   C175      1.0  0.76858  0.55782  0.44772  1.0000
  C   C176      1.0  0.72124  0.55920  0.43953  1.0000
  H   H109      1.0  0.70284  0.57457  0.48886  1.0000
  H   H110      1.0  0.78280  0.57215  0.50323  1.0000
  N   N31       1.0  0.65338  0.52654  0.38345  1.0000
  H   H111      1.0  0.63535  0.55412  0.38520  1.0000
  N   N32       1.0  0.83938  0.52195  0.41027  1.0000
  H   H112      1.0  0.84481  0.48964  0.41812  1.0000
