data_image0
_chemical_formula_structural       C3H2CH4CH4C3HNO2NHC3HNO2NHCNO2NHC29H17C3O3C29H17C3O3C3HNO2NHC3HNO2NHC2NO2NH
_chemical_formula_sum              "C84 H54 N12 O18"
_cell_length_a       45.0986
_cell_length_b       45.0986
_cell_length_c       14.9652
_cell_angle_alpha    90
_cell_angle_beta     90
_cell_angle_gamma    120

_space_group_name_H-M_alt    "P 1"
_space_group_IT_number       1

loop_
  _space_group_symop_operation_xyz
  'x, y, z'

loop_
  _atom_site_type_symbol
  _atom_site_label
  _atom_site_symmetry_multiplicity
  _atom_site_fract_x
  _atom_site_fract_y
  _atom_site_fract_z
  _atom_site_occupancy
  C   C1        1.0  0.01693  0.50675  0.24840  1.0000
  C   C2        1.0  0.02213  0.51057  0.40958  1.0000
  C   C3        1.0  0.03799  0.51680  0.32497  1.0000
  H   H1        1.0  0.02800  0.51129  0.18647  1.0000
  H   H2        1.0  0.03683  0.51665  0.46602  1.0000
  C   C4        1.0  0.40817  0.85554  0.32932  1.0000
  H   H3        1.0  0.39705  0.87052  0.33032  1.0000
  H   H4        1.0  0.36112  0.81037  0.30963  1.0000
  H   H5        1.0  0.47582  0.60589  0.33043  1.0000
  H   H6        1.0  0.13238  0.52711  0.33032  1.0000
  C   C5        1.0  0.59420  0.14661  0.32456  1.0000
  H   H7        1.0  0.60491  0.13132  0.32041  1.0000
  H   H8        1.0  0.64223  0.19162  0.32168  1.0000
  H   H9        1.0  0.52872  0.39796  0.32033  1.0000
  H   H10       1.0  0.87157  0.47419  0.32041  1.0000
  C   C6        1.0  0.48611  0.52177  0.32501  1.0000
  C   C7        1.0  0.49617  0.51078  0.24844  1.0000
  C   C8        1.0  0.51107  0.48972  0.25494  1.0000
  H   H11       1.0  0.49162  0.51730  0.18651  1.0000
  N   N1        1.0  0.51883  0.47690  0.17738  1.0000
  O   O1        1.0  0.53985  0.50071  0.12800  1.0000
  O   O2        1.0  0.49234  0.45820  0.13265  1.0000
  N   N2        1.0  0.47205  0.54248  0.31581  1.0000
  H   H12       1.0  0.48139  0.55955  0.26827  1.0000
  C   C9        1.0  0.48113  0.96491  0.32502  1.0000
  C   C10       1.0  0.49212  0.98598  0.24848  1.0000
  C   C11       1.0  0.51317  0.02194  0.25504  1.0000
  H   H13       1.0  0.48561  0.97492  0.18653  1.0000
  N   N3        1.0  0.52599  0.04254  0.17750  1.0000
  O   O3        1.0  0.50217  0.03975  0.12813  1.0000
  O   O4        1.0  0.54470  0.03477  0.13275  1.0000
  N   N4        1.0  0.46043  0.93013  0.31576  1.0000
  H   H14       1.0  0.44337  0.92243  0.26822  1.0000
  C   C12       1.0  0.98096  0.49184  0.25494  1.0000
  N   N5        1.0  0.96038  0.48406  0.17738  1.0000
  O   O5        1.0  0.96318  0.46304  0.12802  1.0000
  O   O6        1.0  0.96816  0.51055  0.13263  1.0000
  N   N6        1.0  0.07277  0.53090  0.31575  1.0000
  H   H15       1.0  0.08046  0.52150  0.26826  1.0000
  C   C13       1.0  0.44387  0.87016  0.34255  1.0000
  C   C14       1.0  0.45750  0.84789  0.34362  1.0000
  C   C15       1.0  0.43632  0.81239  0.33129  1.0000
  C   C16       1.0  0.40060  0.79784  0.31936  1.0000
  C   C17       1.0  0.38689  0.81999  0.31775  1.0000
  C   C18       1.0  0.37903  0.76277  0.30823  1.0000
  C   C19       1.0  0.37957  0.73894  0.36125  1.0000
  C   C20       1.0  0.35744  0.70392  0.35257  1.0000
  C   C21       1.0  0.32150  0.68989  0.35321  1.0000
  C   C22       1.0  0.29899  0.65409  0.35272  1.0000
  C   C23       1.0  0.31301  0.63217  0.35327  1.0000
  C   C24       1.0  0.34881  0.64546  0.35270  1.0000
  C   C25       1.0  0.37073  0.68140  0.35316  1.0000
  C   C26       1.0  0.36171  0.62334  0.36137  1.0000
  C   C27       1.0  0.38607  0.62388  0.30832  1.0000
  C   C28       1.0  0.39959  0.60232  0.31946  1.0000
  C   C29       1.0  0.43545  0.61603  0.31786  1.0000
  C   C30       1.0  0.37842  0.56659  0.33142  1.0000
  C   C31       1.0  0.39275  0.54543  0.34381  1.0000
  C   C32       1.0  0.42865  0.55907  0.34271  1.0000
  C   C33       1.0  0.44972  0.59476  0.32937  1.0000
  C   C34       1.0  0.26396  0.64119  0.36139  1.0000
  C   C35       1.0  0.24014  0.61682  0.30837  1.0000
  C   C36       1.0  0.20507  0.60333  0.31949  1.0000
  C   C37       1.0  0.19052  0.62450  0.33142  1.0000
  C   C38       1.0  0.18291  0.56747  0.31786  1.0000
  C   C39       1.0  0.14736  0.55321  0.32934  1.0000
  C   C40       1.0  0.13275  0.57429  0.34260  1.0000
  C   C41       1.0  0.15502  0.61019  0.34373  1.0000
  H   H16       1.0  0.48321  0.85736  0.35211  1.0000
  H   H17       1.0  0.44728  0.79725  0.33135  1.0000
  H   H18       1.0  0.39671  0.69129  0.35667  1.0000
  H   H19       1.0  0.31161  0.70598  0.35669  1.0000
  H   H20       1.0  0.29692  0.60619  0.35680  1.0000
  H   H21       1.0  0.20567  0.65060  0.33150  1.0000
  H   H22       1.0  0.45159  0.64180  0.30968  1.0000
  H   H23       1.0  0.37651  0.51972  0.35230  1.0000
  H   H24       1.0  0.35232  0.55563  0.33148  1.0000
  H   H25       1.0  0.14556  0.62643  0.35222  1.0000
  H   H26       1.0  0.19252  0.55131  0.30968  1.0000
  H   H27       1.0  0.39603  0.64140  0.26012  1.0000
  H   H28       1.0  0.35203  0.60610  0.41030  1.0000
  H   H29       1.0  0.36149  0.75521  0.26008  1.0000
  H   H30       1.0  0.39682  0.74649  0.41014  1.0000
  H   H31       1.0  0.24770  0.60686  0.26019  1.0000
  H   H32       1.0  0.25641  0.65089  0.41029  1.0000
  C   C42       1.0  0.09688  0.56002  0.35703  1.0000
  C   C43       1.0  0.44295  0.53750  0.35723  1.0000
  C   C44       1.0  0.46546  0.90602  0.35701  1.0000
  O   O7        1.0  0.42489  0.50925  0.40849  1.0000
  O   O8        1.0  0.49366  0.91620  0.40844  1.0000
  O   O9        1.0  0.08670  0.57805  0.40845  1.0000
  C   C45       1.0  0.55817  0.13222  0.32576  1.0000
  C   C46       1.0  0.54526  0.15513  0.32636  1.0000
  C   C47       1.0  0.56734  0.19084  0.32626  1.0000
  C   C48       1.0  0.60327  0.20497  0.32549  1.0000
  C   C49       1.0  0.61636  0.18231  0.32415  1.0000
  C   C50       1.0  0.62557  0.24012  0.32048  1.0000
  C   C51       1.0  0.62384  0.26319  0.37396  1.0000
  C   C52       1.0  0.64610  0.29836  0.36883  1.0000
  C   C53       1.0  0.68205  0.31249  0.36944  1.0000
  C   C54       1.0  0.70455  0.34831  0.36885  1.0000
  C   C55       1.0  0.69041  0.37014  0.36944  1.0000
  C   C56       1.0  0.65459  0.35681  0.36886  1.0000
  C   C57       1.0  0.63277  0.32085  0.36943  1.0000
  C   C58       1.0  0.64167  0.37906  0.37399  1.0000
  C   C59       1.0  0.61687  0.37733  0.32048  1.0000
  C   C60       1.0  0.60403  0.39963  0.32547  1.0000
  C   C61       1.0  0.56828  0.38653  0.32412  1.0000
  C   C62       1.0  0.62581  0.43556  0.32625  1.0000
  C   C63       1.0  0.61218  0.45763  0.32634  1.0000
  C   C64       1.0  0.57636  0.44471  0.32569  1.0000
  C   C65       1.0  0.55471  0.40867  0.32453  1.0000
  C   C66       1.0  0.73971  0.36123  0.37397  1.0000
  C   C67       1.0  0.76279  0.38604  0.32048  1.0000
  C   C68       1.0  0.79793  0.39888  0.32548  1.0000
  C   C69       1.0  0.81208  0.37710  0.32623  1.0000
  C   C70       1.0  0.82058  0.43463  0.32410  1.0000
  C   C71       1.0  0.85629  0.44820  0.32450  1.0000
  C   C72       1.0  0.87068  0.42656  0.32574  1.0000
  C   C73       1.0  0.84778  0.39073  0.32634  1.0000
  H   H33       1.0  0.51944  0.14608  0.32642  1.0000
  H   H34       1.0  0.55688  0.20641  0.32491  1.0000
  H   H35       1.0  0.60677  0.31090  0.37180  1.0000
  H   H36       1.0  0.69201  0.29645  0.37177  1.0000
  H   H37       1.0  0.70646  0.39614  0.37181  1.0000
  H   H38       1.0  0.79651  0.35106  0.32492  1.0000
  H   H39       1.0  0.55171  0.36065  0.32164  1.0000
  H   H40       1.0  0.62894  0.48345  0.32642  1.0000
  H   H41       1.0  0.65185  0.44603  0.32495  1.0000
  H   H42       1.0  0.85684  0.37397  0.32642  1.0000
  H   H43       1.0  0.81127  0.45120  0.32169  1.0000
  H   H44       1.0  0.60648  0.35871  0.27514  1.0000
  H   H45       1.0  0.65207  0.39768  0.41931  1.0000
  H   H46       1.0  0.64419  0.24834  0.27514  1.0000
  H   H47       1.0  0.60522  0.25497  0.41929  1.0000
  H   H48       1.0  0.75456  0.39644  0.27514  1.0000
  H   H49       1.0  0.74794  0.35084  0.41930  1.0000
  C   C74       1.0  0.90685  0.43993  0.32084  1.0000
  C   C75       1.0  0.56298  0.46750  0.32080  1.0000
  C   C76       1.0  0.53537  0.09606  0.32088  1.0000
  O   O10       1.0  0.58356  0.49928  0.28718  1.0000
  O   O11       1.0  0.50359  0.08486  0.28731  1.0000
  O   O12       1.0  0.91805  0.41935  0.28723  1.0000
  C   C77       1.0  0.51726  0.48033  0.34057  1.0000
  C   C78       1.0  0.50758  0.49141  0.41836  1.0000
  C   C79       1.0  0.49235  0.51214  0.40962  1.0000
  H   H50       1.0  0.48629  0.52077  0.46607  1.0000
  N   N7        1.0  0.51417  0.48220  0.50343  1.0000
  O   O13       1.0  0.53430  0.50814  0.54818  1.0000
  O   O14       1.0  0.48702  0.46522  0.54728  1.0000
  N   N8        1.0  0.53091  0.45920  0.34840  1.0000
  H   H51       1.0  0.51796  0.43862  0.38426  1.0000
  C   C80       1.0  0.52255  0.03750  0.34070  1.0000
  C   C81       1.0  0.51145  0.01671  0.41845  1.0000
  C   C82       1.0  0.49074  0.98076  0.40965  1.0000
  H   H52       1.0  0.48211  0.96605  0.46607  1.0000
  N   N9        1.0  0.52065  0.03250  0.50354  1.0000
  O   O15       1.0  0.49470  0.02666  0.54830  1.0000
  O   O16       1.0  0.53764  0.02232  0.54738  1.0000
  N   N10       1.0  0.54363  0.07227  0.34862  1.0000
  H   H53       1.0  0.56426  0.07991  0.38430  1.0000
  C   C83       1.0  0.96540  0.48566  0.34058  1.0000
  C   C84       1.0  0.98618  0.49534  0.41835  1.0000
  N   N11       1.0  0.97038  0.48876  0.50343  1.0000
  O   O17       1.0  0.97620  0.46864  0.54820  1.0000
  O   O18       1.0  0.98056  0.51592  0.54726  1.0000
  N   N12       1.0  0.93063  0.47201  0.34843  1.0000
  H   H54       1.0  0.92299  0.48495  0.38429  1.0000
