data_image0
_chemical_formula_structural       C2HC2HN2C3NC2NHOHCHC3NC2NHOHCHC4H2C4H2N2C3H2CHC3H2CHC2HC2HN2C3NC2NHOHCHC3NC2NHOHCHC4H2C4H2N2C3H2CHC3H2CHC2HC2HN2C3NC2NHOHCHC3NC2NHOHCHC4H2C4H2N2C3H2CHC3H2CHC2HC2HN2C3NC2NHOHCHC3NC2NHOHCHC4H2C4H2N2C3H2CHC3H2CH
_chemical_formula_sum              "C128 H72 N32 O8"
_cell_length_a       31.6388
_cell_length_b       31.6388
_cell_length_c       14.934
_cell_angle_alpha    90
_cell_angle_beta     90
_cell_angle_gamma    90

_space_group_name_H-M_alt    "P 1"
_space_group_IT_number       1

loop_
  _space_group_symop_operation_xyz
  'x, y, z'

loop_
  _atom_site_type_symbol
  _atom_site_label
  _atom_site_symmetry_multiplicity
  _atom_site_fract_x
  _atom_site_fract_y
  _atom_site_fract_z
  _atom_site_occupancy
  C   C1        1.0  0.01924  0.05216  0.30289  1.0000
  C   C2        1.0  0.05031  0.08435  0.30244  1.0000
  H   H1        1.0  0.48892  0.06233  0.30148  1.0000
  C   C3        1.0  0.47465  0.39956  0.30594  1.0000
  C   C4        1.0  0.50599  0.43136  0.30712  1.0000
  H   H2        1.0  0.03629  0.42086  0.30801  1.0000
  N   N1        1.0  0.48219  0.35747  0.30495  1.0000
  N   N2        1.0  0.04257  0.12658  0.29995  1.0000
  C   C5        1.0  0.00698  0.19514  0.29474  1.0000
  C   C6        1.0  0.96955  0.21999  0.28308  1.0000
  C   C7        1.0  0.97227  0.26515  0.28791  1.0000
  N   N3        1.0  0.93617  0.28778  0.27577  1.0000
  C   C8        1.0  0.89788  0.27090  0.25921  1.0000
  C   C9        1.0  0.89499  0.22695  0.25287  1.0000
  N   N4        1.0  0.93030  0.20316  0.26505  1.0000
  H   H3        1.0  0.87218  0.28993  0.24989  1.0000
  O   O1        1.0  0.85739  0.20905  0.23299  1.0000
  H   H4        1.0  0.92637  0.17300  0.25817  1.0000
  C   C10       1.0  0.00697  0.15023  0.29506  1.0000
  H   H5        1.0  0.97924  0.13417  0.29133  1.0000
  C   C11       1.0  0.30926  0.99745  0.29585  1.0000
  C   C12       1.0  0.28441  0.03493  0.28470  1.0000
  C   C13       1.0  0.23924  0.03219  0.28928  1.0000
  N   N5        1.0  0.21662  0.06832  0.27761  1.0000
  C   C14       1.0  0.23351  0.10667  0.26174  1.0000
  C   C15       1.0  0.27746  0.10962  0.25586  1.0000
  N   N6        1.0  0.30125  0.07426  0.26751  1.0000
  H   H6        1.0  0.21448  0.13242  0.25299  1.0000
  O   O2        1.0  0.29539  0.14735  0.23725  1.0000
  H   H7        1.0  0.33142  0.07825  0.26109  1.0000
  C   C16       1.0  0.35416  0.99744  0.29608  1.0000
  H   H8        1.0  0.37024  0.02516  0.29245  1.0000
  C   C17       1.0  0.02881  0.00794  0.30550  1.0000
  C   C18       1.0  0.09301  0.07248  0.30412  1.0000
  C   C19       1.0  0.10482  0.02973  0.30627  1.0000
  C   C20       1.0  0.07301  0.99839  0.30749  1.0000
  H   H9        1.0  0.08352  0.46810  0.30884  1.0000
  H   H10       1.0  0.11594  0.09541  0.30309  1.0000
  C   C21       1.0  0.49645  0.47557  0.30552  1.0000
  C   C22       1.0  0.45222  0.48514  0.30337  1.0000
  C   C23       1.0  0.42003  0.45407  0.30278  1.0000
  C   C24       1.0  0.43191  0.41137  0.30404  1.0000
  H   H11       1.0  0.44205  0.01547  0.30261  1.0000
  H   H12       1.0  0.40898  0.38844  0.30299  1.0000
  N   N7        1.0  0.37780  0.46182  0.30056  1.0000
  N   N8        1.0  0.14691  0.02220  0.30550  1.0000
  C   C25       1.0  0.01124  0.28651  0.30251  1.0000
  C   C26       1.0  0.04778  0.26122  0.31104  1.0000
  C   C27       1.0  0.04570  0.21691  0.30746  1.0000
  H   H13       1.0  0.07340  0.20067  0.31586  1.0000
  H   H14       1.0  0.07673  0.27489  0.32133  1.0000
  C   C28       1.0  0.01573  0.33109  0.30759  1.0000
  H   H15       1.0  0.04513  0.34414  0.31484  1.0000
  C   C29       1.0  0.21788  0.99317  0.30334  1.0000
  C   C30       1.0  0.24317  0.95662  0.31157  1.0000
  C   C31       1.0  0.28748  0.95871  0.30809  1.0000
  H   H16       1.0  0.30371  0.93098  0.31616  1.0000
  H   H17       1.0  0.22949  0.92764  0.32148  1.0000
  C   C32       1.0  0.17329  0.98866  0.30822  1.0000
  H   H18       1.0  0.16025  0.95925  0.31520  1.0000
  C   C33       1.0  0.01924  0.55216  0.30289  1.0000
  C   C34       1.0  0.05031  0.58435  0.30244  1.0000
  H   H19       1.0  0.48892  0.56233  0.30148  1.0000
  C   C35       1.0  0.47465  0.89956  0.30594  1.0000
  C   C36       1.0  0.50599  0.93136  0.30712  1.0000
  H   H20       1.0  0.03629  0.92086  0.30801  1.0000
  N   N9        1.0  0.48219  0.85747  0.30495  1.0000
  N   N10       1.0  0.04257  0.62658  0.29995  1.0000
  C   C37       1.0  0.00698  0.69513  0.29474  1.0000
  C   C38       1.0  0.96955  0.71999  0.28308  1.0000
  C   C39       1.0  0.97227  0.76515  0.28791  1.0000
  N   N11       1.0  0.93617  0.78778  0.27577  1.0000
  C   C40       1.0  0.89788  0.77090  0.25921  1.0000
  C   C41       1.0  0.89499  0.72695  0.25287  1.0000
  N   N12       1.0  0.93030  0.70315  0.26505  1.0000
  H   H21       1.0  0.87218  0.78993  0.24989  1.0000
  O   O3        1.0  0.85739  0.70905  0.23299  1.0000
  H   H22       1.0  0.92637  0.67300  0.25817  1.0000
  C   C42       1.0  0.00697  0.65023  0.29506  1.0000
  H   H23       1.0  0.97924  0.63417  0.29133  1.0000
  C   C43       1.0  0.30926  0.49745  0.29585  1.0000
  C   C44       1.0  0.28441  0.53492  0.28470  1.0000
  C   C45       1.0  0.23924  0.53219  0.28928  1.0000
  N   N13       1.0  0.21662  0.56832  0.27761  1.0000
  C   C46       1.0  0.23351  0.60667  0.26174  1.0000
  C   C47       1.0  0.27746  0.60962  0.25586  1.0000
  N   N14       1.0  0.30125  0.57426  0.26751  1.0000
  H   H24       1.0  0.21448  0.63242  0.25299  1.0000
  O   O4        1.0  0.29539  0.64734  0.23725  1.0000
  H   H25       1.0  0.33142  0.57825  0.26109  1.0000
  C   C48       1.0  0.35416  0.49744  0.29608  1.0000
  H   H26       1.0  0.37024  0.52516  0.29245  1.0000
  C   C49       1.0  0.02881  0.50794  0.30550  1.0000
  C   C50       1.0  0.09301  0.57248  0.30412  1.0000
  C   C51       1.0  0.10482  0.52973  0.30627  1.0000
  C   C52       1.0  0.07301  0.49839  0.30749  1.0000
  H   H27       1.0  0.08352  0.96810  0.30884  1.0000
  H   H28       1.0  0.11594  0.59540  0.30309  1.0000
  C   C53       1.0  0.49645  0.97557  0.30552  1.0000
  C   C54       1.0  0.45222  0.98514  0.30337  1.0000
  C   C55       1.0  0.42003  0.95407  0.30278  1.0000
  C   C56       1.0  0.43191  0.91137  0.30404  1.0000
  H   H29       1.0  0.44205  0.51547  0.30261  1.0000
  H   H30       1.0  0.40898  0.88844  0.30299  1.0000
  N   N15       1.0  0.37780  0.96183  0.30056  1.0000
  N   N16       1.0  0.14691  0.52220  0.30550  1.0000
  C   C57       1.0  0.01124  0.78651  0.30251  1.0000
  C   C58       1.0  0.04778  0.76122  0.31104  1.0000
  C   C59       1.0  0.04570  0.71691  0.30746  1.0000
  H   H31       1.0  0.07340  0.70067  0.31586  1.0000
  H   H32       1.0  0.07673  0.77489  0.32133  1.0000
  C   C60       1.0  0.01573  0.83110  0.30759  1.0000
  H   H33       1.0  0.04513  0.84414  0.31484  1.0000
  C   C61       1.0  0.21788  0.49317  0.30334  1.0000
  C   C62       1.0  0.24317  0.45662  0.31157  1.0000
  C   C63       1.0  0.28748  0.45871  0.30809  1.0000
  H   H34       1.0  0.30371  0.43098  0.31616  1.0000
  H   H35       1.0  0.22949  0.42764  0.32148  1.0000
  C   C64       1.0  0.17329  0.48866  0.30822  1.0000
  H   H36       1.0  0.16025  0.45925  0.31520  1.0000
  C   C65       1.0  0.51924  0.05216  0.30289  1.0000
  C   C66       1.0  0.55031  0.08435  0.30244  1.0000
  H   H37       1.0  0.98892  0.06233  0.30148  1.0000
  C   C67       1.0  0.97465  0.39956  0.30594  1.0000
  C   C68       1.0  0.00599  0.43136  0.30712  1.0000
  H   H38       1.0  0.53629  0.42086  0.30801  1.0000
  N   N17       1.0  0.98219  0.35747  0.30495  1.0000
  N   N18       1.0  0.54257  0.12658  0.29995  1.0000
  C   C69       1.0  0.50699  0.19514  0.29474  1.0000
  C   C70       1.0  0.46955  0.21999  0.28308  1.0000
  C   C71       1.0  0.47226  0.26515  0.28791  1.0000
  N   N19       1.0  0.43617  0.28778  0.27577  1.0000
  C   C72       1.0  0.39788  0.27090  0.25921  1.0000
  C   C73       1.0  0.39499  0.22695  0.25287  1.0000
  N   N20       1.0  0.43030  0.20316  0.26505  1.0000
  H   H39       1.0  0.37218  0.28993  0.24989  1.0000
  O   O5        1.0  0.35739  0.20905  0.23299  1.0000
  H   H40       1.0  0.42637  0.17300  0.25817  1.0000
  C   C74       1.0  0.50697  0.15023  0.29506  1.0000
  H   H41       1.0  0.47924  0.13417  0.29133  1.0000
  C   C75       1.0  0.80926  0.99745  0.29585  1.0000
  C   C76       1.0  0.78441  0.03493  0.28470  1.0000
  C   C77       1.0  0.73924  0.03219  0.28928  1.0000
  N   N21       1.0  0.71661  0.06832  0.27761  1.0000
  C   C78       1.0  0.73351  0.10667  0.26174  1.0000
  C   C79       1.0  0.77746  0.10962  0.25586  1.0000
  N   N22       1.0  0.80125  0.07426  0.26751  1.0000
  H   H42       1.0  0.71448  0.13242  0.25299  1.0000
  O   O6        1.0  0.79539  0.14735  0.23725  1.0000
  H   H43       1.0  0.83142  0.07825  0.26109  1.0000
  C   C80       1.0  0.85416  0.99744  0.29608  1.0000
  H   H44       1.0  0.87024  0.02516  0.29245  1.0000
  C   C81       1.0  0.52881  0.00794  0.30550  1.0000
  C   C82       1.0  0.59301  0.07248  0.30412  1.0000
  C   C83       1.0  0.60482  0.02973  0.30627  1.0000
  C   C84       1.0  0.57302  0.99839  0.30749  1.0000
  H   H45       1.0  0.58352  0.46810  0.30884  1.0000
  H   H46       1.0  0.61594  0.09541  0.30309  1.0000
  C   C85       1.0  0.99645  0.47557  0.30552  1.0000
  C   C86       1.0  0.95222  0.48514  0.30337  1.0000
  C   C87       1.0  0.92003  0.45407  0.30278  1.0000
  C   C88       1.0  0.93191  0.41137  0.30404  1.0000
  H   H47       1.0  0.94205  0.01547  0.30261  1.0000
  H   H48       1.0  0.90897  0.38844  0.30299  1.0000
  N   N23       1.0  0.87780  0.46182  0.30056  1.0000
  N   N24       1.0  0.64691  0.02220  0.30550  1.0000
  C   C89       1.0  0.51125  0.28651  0.30251  1.0000
  C   C90       1.0  0.54778  0.26122  0.31104  1.0000
  C   C91       1.0  0.54570  0.21691  0.30746  1.0000
  H   H49       1.0  0.57340  0.20067  0.31586  1.0000
  H   H50       1.0  0.57673  0.27489  0.32133  1.0000
  C   C92       1.0  0.51573  0.33109  0.30759  1.0000
  H   H51       1.0  0.54513  0.34414  0.31484  1.0000
  C   C93       1.0  0.71788  0.99317  0.30334  1.0000
  C   C94       1.0  0.74317  0.95662  0.31157  1.0000
  C   C95       1.0  0.78748  0.95871  0.30809  1.0000
  H   H52       1.0  0.80371  0.93098  0.31616  1.0000
  H   H53       1.0  0.72949  0.92764  0.32148  1.0000
  C   C96       1.0  0.67329  0.98866  0.30822  1.0000
  H   H54       1.0  0.66025  0.95925  0.31520  1.0000
  C   C97       1.0  0.51924  0.55216  0.30289  1.0000
  C   C98       1.0  0.55031  0.58435  0.30244  1.0000
  H   H55       1.0  0.98892  0.56233  0.30148  1.0000
  C   C99       1.0  0.97465  0.89956  0.30594  1.0000
  C   C100      1.0  0.00599  0.93136  0.30712  1.0000
  H   H56       1.0  0.53629  0.92086  0.30801  1.0000
  N   N25       1.0  0.98219  0.85747  0.30495  1.0000
  N   N26       1.0  0.54257  0.62658  0.29995  1.0000
  C   C101      1.0  0.50699  0.69513  0.29474  1.0000
  C   C102      1.0  0.46955  0.71999  0.28308  1.0000
  C   C103      1.0  0.47226  0.76515  0.28791  1.0000
  N   N27       1.0  0.43617  0.78778  0.27577  1.0000
  C   C104      1.0  0.39788  0.77090  0.25921  1.0000
  C   C105      1.0  0.39499  0.72695  0.25287  1.0000
  N   N28       1.0  0.43030  0.70315  0.26505  1.0000
  H   H57       1.0  0.37218  0.78993  0.24989  1.0000
  O   O7        1.0  0.35739  0.70905  0.23299  1.0000
  H   H58       1.0  0.42637  0.67300  0.25817  1.0000
  C   C106      1.0  0.50697  0.65023  0.29506  1.0000
  H   H59       1.0  0.47924  0.63417  0.29133  1.0000
  C   C107      1.0  0.80926  0.49745  0.29585  1.0000
  C   C108      1.0  0.78441  0.53492  0.28470  1.0000
  C   C109      1.0  0.73924  0.53219  0.28928  1.0000
  N   N29       1.0  0.71661  0.56832  0.27761  1.0000
  C   C110      1.0  0.73351  0.60667  0.26174  1.0000
  C   C111      1.0  0.77746  0.60962  0.25586  1.0000
  N   N30       1.0  0.80125  0.57426  0.26751  1.0000
  H   H60       1.0  0.71448  0.63242  0.25299  1.0000
  O   O8        1.0  0.79539  0.64734  0.23725  1.0000
  H   H61       1.0  0.83142  0.57825  0.26109  1.0000
  C   C112      1.0  0.85416  0.49744  0.29608  1.0000
  H   H62       1.0  0.87024  0.52516  0.29245  1.0000
  C   C113      1.0  0.52881  0.50794  0.30550  1.0000
  C   C114      1.0  0.59301  0.57248  0.30412  1.0000
  C   C115      1.0  0.60482  0.52973  0.30627  1.0000
  C   C116      1.0  0.57302  0.49839  0.30749  1.0000
  H   H63       1.0  0.58352  0.96810  0.30884  1.0000
  H   H64       1.0  0.61594  0.59540  0.30309  1.0000
  C   C117      1.0  0.99645  0.97557  0.30552  1.0000
  C   C118      1.0  0.95222  0.98514  0.30337  1.0000
  C   C119      1.0  0.92003  0.95407  0.30278  1.0000
  C   C120      1.0  0.93191  0.91137  0.30404  1.0000
  H   H65       1.0  0.94205  0.51547  0.30261  1.0000
  H   H66       1.0  0.90897  0.88844  0.30299  1.0000
  N   N31       1.0  0.87780  0.96183  0.30056  1.0000
  N   N32       1.0  0.64691  0.52220  0.30550  1.0000
  C   C121      1.0  0.51125  0.78651  0.30251  1.0000
  C   C122      1.0  0.54778  0.76122  0.31104  1.0000
  C   C123      1.0  0.54570  0.71691  0.30746  1.0000
  H   H67       1.0  0.57340  0.70067  0.31586  1.0000
  H   H68       1.0  0.57673  0.77489  0.32133  1.0000
  C   C124      1.0  0.51573  0.83110  0.30759  1.0000
  H   H69       1.0  0.54513  0.84414  0.31484  1.0000
  C   C125      1.0  0.71788  0.49317  0.30334  1.0000
  C   C126      1.0  0.74317  0.45662  0.31157  1.0000
  C   C127      1.0  0.78748  0.45871  0.30809  1.0000
  H   H70       1.0  0.80371  0.43098  0.31616  1.0000
  H   H71       1.0  0.72949  0.42764  0.32148  1.0000
  C   C128      1.0  0.67329  0.48866  0.30822  1.0000
  H   H72       1.0  0.66025  0.45925  0.31520  1.0000
