data_image0
_chemical_formula_structural       C2H2C3HOHC3HOHC2OHCNCNCNC18H12CNCNCNC18H12C3OH2C3OH2C2OH
_chemical_formula_sum              "C60 H36 O6 N6"
_cell_length_a       29.4619
_cell_length_b       29.4619
_cell_length_c       14.9449
_cell_angle_alpha    90
_cell_angle_beta     90
_cell_angle_gamma    120

_space_group_name_H-M_alt    "P 1"
_space_group_IT_number       1

loop_
  _space_group_symop_operation_xyz
  'x, y, z'

loop_
  _atom_site_type_symbol
  _atom_site_label
  _atom_site_symmetry_multiplicity
  _atom_site_fract_x
  _atom_site_fract_y
  _atom_site_fract_z
  _atom_site_occupancy
  C   C1        1.0  0.03075  0.51584  0.25642  1.0000
  C   C2        1.0  0.03024  0.51558  0.42006  1.0000
  H   H1        1.0  0.03495  0.51794  0.55120  1.0000
  H   H2        1.0  0.05116  0.52604  0.19743  1.0000
  C   C3        1.0  0.48877  0.51584  0.25642  1.0000
  C   C4        1.0  0.51650  0.48811  0.25413  1.0000
  C   C5        1.0  0.53054  0.47406  0.33583  1.0000
  H   H3        1.0  0.47857  0.52604  0.19743  1.0000
  O   O1        1.0  0.53045  0.47416  0.17550  1.0000
  H   H4        1.0  0.51885  0.48575  0.12298  1.0000
  C   C6        1.0  0.48877  0.97386  0.25642  1.0000
  C   C7        1.0  0.51650  0.02931  0.25413  1.0000
  C   C8        1.0  0.53055  0.05740  0.33583  1.0000
  H   H5        1.0  0.47857  0.95345  0.19743  1.0000
  O   O2        1.0  0.53045  0.05721  0.17551  1.0000
  H   H6        1.0  0.51886  0.03402  0.12298  1.0000
  C   C9        1.0  0.97530  0.48811  0.25413  1.0000
  C   C10       1.0  0.94720  0.47406  0.33583  1.0000
  O   O3        1.0  0.94740  0.47416  0.17550  1.0000
  H   H7        1.0  0.97059  0.48575  0.12297  1.0000
  C   C11       1.0  0.36317  0.72266  0.33667  1.0000
  N   N1        1.0  0.38855  0.69473  0.33668  1.0000
  C   C12       1.0  0.36317  0.64144  0.33667  1.0000
  N   N2        1.0  0.30987  0.61606  0.33668  1.0000
  C   C13       1.0  0.28195  0.64144  0.33667  1.0000
  N   N3        1.0  0.30987  0.69473  0.33668  1.0000
  C   C14       1.0  0.39117  0.61344  0.33674  1.0000
  C   C15       1.0  0.44676  0.64016  0.33685  1.0000
  C   C16       1.0  0.47442  0.61265  0.33714  1.0000
  C   C17       1.0  0.44722  0.55738  0.33725  1.0000
  C   C18       1.0  0.39195  0.53019  0.33714  1.0000
  C   C19       1.0  0.36445  0.55785  0.33685  1.0000
  C   C20       1.0  0.39117  0.77865  0.33674  1.0000
  C   C21       1.0  0.44676  0.80753  0.33684  1.0000
  C   C22       1.0  0.47442  0.86269  0.33714  1.0000
  C   C23       1.0  0.44722  0.89076  0.33725  1.0000
  C   C24       1.0  0.39195  0.86269  0.33714  1.0000
  C   C25       1.0  0.36445  0.80753  0.33685  1.0000
  C   C26       1.0  0.22595  0.61344  0.33674  1.0000
  C   C27       1.0  0.19708  0.64016  0.33685  1.0000
  C   C28       1.0  0.14192  0.61265  0.33714  1.0000
  C   C29       1.0  0.11385  0.55738  0.33725  1.0000
  C   C30       1.0  0.14192  0.53019  0.33714  1.0000
  C   C31       1.0  0.19708  0.55785  0.33685  1.0000
  H   H8        1.0  0.51454  0.88219  0.33743  1.0000
  H   H9        1.0  0.46804  0.78874  0.33686  1.0000
  H   H10       1.0  0.37134  0.88219  0.33743  1.0000
  H   H11       1.0  0.32438  0.78874  0.33686  1.0000
  H   H12       1.0  0.21587  0.68022  0.33686  1.0000
  H   H13       1.0  0.12241  0.63327  0.33743  1.0000
  H   H14       1.0  0.21587  0.53657  0.33686  1.0000
  H   H15       1.0  0.12241  0.49006  0.33743  1.0000
  H   H16       1.0  0.32438  0.53657  0.33686  1.0000
  H   H17       1.0  0.37134  0.49006  0.33743  1.0000
  H   H18       1.0  0.51454  0.63327  0.33743  1.0000
  H   H19       1.0  0.46804  0.68022  0.33686  1.0000
  C   C32       1.0  0.64236  0.28103  0.33737  1.0000
  N   N4        1.0  0.61698  0.30895  0.33737  1.0000
  C   C33       1.0  0.64235  0.36225  0.33737  1.0000
  N   N5        1.0  0.69566  0.38763  0.33737  1.0000
  C   C34       1.0  0.72358  0.36225  0.33737  1.0000
  N   N6        1.0  0.69566  0.30895  0.33737  1.0000
  C   C35       1.0  0.61436  0.39025  0.33734  1.0000
  C   C36       1.0  0.55877  0.36353  0.33726  1.0000
  C   C37       1.0  0.53111  0.39104  0.33701  1.0000
  C   C38       1.0  0.55830  0.44630  0.33692  1.0000
  C   C39       1.0  0.61357  0.47350  0.33701  1.0000
  C   C40       1.0  0.64108  0.44584  0.33726  1.0000
  C   C41       1.0  0.61436  0.22503  0.33734  1.0000
  C   C42       1.0  0.55876  0.19616  0.33725  1.0000
  C   C43       1.0  0.53110  0.14099  0.33701  1.0000
  C   C44       1.0  0.55830  0.11292  0.33693  1.0000
  C   C45       1.0  0.61357  0.14099  0.33701  1.0000
  C   C46       1.0  0.64108  0.19616  0.33725  1.0000
  C   C47       1.0  0.77958  0.39025  0.33734  1.0000
  C   C48       1.0  0.80845  0.36353  0.33726  1.0000
  C   C49       1.0  0.86361  0.39104  0.33701  1.0000
  C   C50       1.0  0.89168  0.44630  0.33692  1.0000
  C   C51       1.0  0.86361  0.47350  0.33702  1.0000
  C   C52       1.0  0.80845  0.44584  0.33726  1.0000
  H   H20       1.0  0.49098  0.12149  0.33673  1.0000
  H   H21       1.0  0.53749  0.21494  0.33723  1.0000
  H   H22       1.0  0.63419  0.12149  0.33673  1.0000
  H   H23       1.0  0.68114  0.21494  0.33723  1.0000
  H   H24       1.0  0.78966  0.32347  0.33723  1.0000
  H   H25       1.0  0.88312  0.37042  0.33673  1.0000
  H   H26       1.0  0.78966  0.46712  0.33723  1.0000
  H   H27       1.0  0.88312  0.51362  0.33673  1.0000
  H   H28       1.0  0.68114  0.46712  0.33723  1.0000
  H   H29       1.0  0.63419  0.51362  0.33673  1.0000
  H   H30       1.0  0.49098  0.37042  0.33673  1.0000
  H   H31       1.0  0.53749  0.32347  0.33723  1.0000
  C   C53       1.0  0.51675  0.48785  0.41776  1.0000
  C   C54       1.0  0.48903  0.51558  0.42006  1.0000
  C   C55       1.0  0.47498  0.52963  0.33835  1.0000
  O   O4        1.0  0.47508  0.52953  0.49868  1.0000
  H   H32       1.0  0.52696  0.47765  0.47675  1.0000
  H   H33       1.0  0.48667  0.51794  0.55121  1.0000
  C   C56       1.0  0.51675  0.02983  0.41777  1.0000
  C   C57       1.0  0.48903  0.97437  0.42006  1.0000
  C   C58       1.0  0.47498  0.94628  0.33835  1.0000
  O   O5        1.0  0.47507  0.94647  0.49868  1.0000
  H   H34       1.0  0.52696  0.05023  0.47675  1.0000
  H   H35       1.0  0.48667  0.96965  0.55121  1.0000
  C   C59       1.0  0.97478  0.48785  0.41776  1.0000
  C   C60       1.0  0.05833  0.52963  0.33835  1.0000
  O   O6        1.0  0.05814  0.52953  0.49867  1.0000
  H   H36       1.0  0.95437  0.47765  0.47675  1.0000
