data_image0
_chemical_formula_structural       C7H2NHC3H2NHC3H2NHC5H3C2O3C5H3C2O3C3NC2NH2NHC3NC2NH2NHC3NC2NH2NHC7H2NHC3H2NHC3H2NHC5H3C2O3C5H3C2O3C3NC2NH2NHC3NC2NH2NHC3NC2NH2NHC7H2NHC3H2NHC3H2NHC5H3C2O3C5H3C2O3C3NC2NH2NHC3NC2NH2NHC3NC2NH2NHC7H2NHC3H2NHC3H2NHC5H3C2O3C5H3C2O3C3NC2NH2NHC3NC2NH2NHC3NC2NH2NH
_chemical_formula_sum              "C168 H96 N48 O24"
_cell_length_a       43.8377
_cell_length_b       43.8376
_cell_length_c       15.0277
_cell_angle_alpha    90
_cell_angle_beta     90
_cell_angle_gamma    120

_space_group_name_H-M_alt    "P 1"
_space_group_IT_number       1

loop_
  _space_group_symop_operation_xyz
  'x, y, z'

loop_
  _atom_site_type_symbol
  _atom_site_label
  _atom_site_symmetry_multiplicity
  _atom_site_fract_x
  _atom_site_fract_y
  _atom_site_fract_z
  _atom_site_occupancy
  C   C1        1.0  0.19509  0.32721  0.40187  1.0000
  C   C2        1.0  0.22465  0.32223  0.39502  1.0000
  C   C3        1.0  0.30973  0.18111  0.25383  1.0000
  C   C4        1.0  0.28759  0.19572  0.26794  1.0000
  C   C5        1.0  0.28225  0.24641  0.31098  1.0000
  C   C6        1.0  0.28575  0.27777  0.27482  1.0000
  C   C7        1.0  0.26712  0.29333  0.31017  1.0000
  H   H1        1.0  0.26769  0.31350  0.27482  1.0000
  H   H2        1.0  0.29958  0.28787  0.21702  1.0000
  N   N1        1.0  0.29885  0.23090  0.26959  1.0000
  H   H3        1.0  0.31837  0.24566  0.23009  1.0000
  C   C8        1.0  0.25131  0.03539  0.31095  1.0000
  C   C9        1.0  0.21999  0.00752  0.27468  1.0000
  C   C10       1.0  0.20443  0.47331  0.31001  1.0000
  H   H4        1.0  0.18423  0.45373  0.27472  1.0000
  H   H5        1.0  0.20985  0.01125  0.21696  1.0000
  N   N2        1.0  0.26678  0.06752  0.26967  1.0000
  H   H6        1.0  0.25204  0.07225  0.23002  1.0000
  C   C11       1.0  0.46231  0.21547  0.31088  1.0000
  C   C12       1.0  0.49019  0.21202  0.27462  1.0000
  C   C13       1.0  0.02438  0.23059  0.31008  1.0000
  H   H7        1.0  0.04397  0.23004  0.27466  1.0000
  H   H8        1.0  0.48644  0.19815  0.21690  1.0000
  N   N3        1.0  0.43019  0.19883  0.26960  1.0000
  H   H9        1.0  0.42545  0.17936  0.22993  1.0000
  C   C14       1.0  0.17049  0.36743  0.40183  1.0000
  C   C15       1.0  0.13630  0.33751  0.40136  1.0000
  C   C16       1.0  0.13027  0.30261  0.40182  1.0000
  C   C17       1.0  0.16018  0.29833  0.40136  1.0000
  C   C18       1.0  0.19937  0.36140  0.40149  1.0000
  H   H10       1.0  0.15629  0.27339  0.39651  1.0000
  H   H11       1.0  0.22431  0.38244  0.39657  1.0000
  H   H12       1.0  0.11526  0.34141  0.39652  1.0000
  C   C19       1.0  0.17547  0.40196  0.39501  1.0000
  C   C20       1.0  0.09573  0.27305  0.39494  1.0000
  O   O1        1.0  0.25670  0.35054  0.37734  1.0000
  O   O2        1.0  0.14717  0.40572  0.37714  1.0000
  O   O3        1.0  0.09199  0.24100  0.37718  1.0000
  C   C21       1.0  0.31659  0.12818  0.25392  1.0000
  C   C22       1.0  0.35358  0.15081  0.25296  1.0000
  C   C23       1.0  0.36953  0.18796  0.25384  1.0000
  C   C24       1.0  0.34688  0.20231  0.25301  1.0000
  C   C25       1.0  0.29538  0.14411  0.25301  1.0000
  H   H13       1.0  0.35784  0.22895  0.25880  1.0000
  H   H14       1.0  0.26874  0.12844  0.25879  1.0000
  H   H15       1.0  0.36926  0.13985  0.25883  1.0000
  C   C26       1.0  0.30197  0.09143  0.26800  1.0000
  C   C27       1.0  0.40626  0.21009  0.26799  1.0000
  O   O4        1.0  0.25246  0.17344  0.27847  1.0000
  O   O5        1.0  0.32425  0.07857  0.27847  1.0000
  O   O6        1.0  0.41912  0.24522  0.27851  1.0000
  C   C28       1.0  0.24518  0.27924  0.38594  1.0000
  C   C29       1.0  0.24427  0.24973  0.42771  1.0000
  C   C30       1.0  0.26285  0.23373  0.39136  1.0000
  N   N4        1.0  0.26277  0.20722  0.43889  1.0000
  C   C31       1.0  0.24524  0.19450  0.51654  1.0000
  C   C32       1.0  0.22608  0.20957  0.55091  1.0000
  N   N5        1.0  0.22661  0.23657  0.50572  1.0000
  H   H16       1.0  0.24606  0.17442  0.54886  1.0000
  H   H17       1.0  0.21253  0.20095  0.60939  1.0000
  N   N6        1.0  0.22333  0.29120  0.41450  1.0000
  H   H18       1.0  0.20431  0.27563  0.45410  1.0000
  C   C33       1.0  0.21846  0.46548  0.38593  1.0000
  C   C34       1.0  0.24798  0.49408  0.42768  1.0000
  C   C35       1.0  0.26397  0.02866  0.39136  1.0000
  N   N7        1.0  0.29046  0.05510  0.43893  1.0000
  C   C36       1.0  0.30317  0.05029  0.51660  1.0000
  C   C37       1.0  0.28809  0.51606  0.55099  1.0000
  N   N8        1.0  0.26111  0.48959  0.50574  1.0000
  H   H19       1.0  0.32323  0.07119  0.54895  1.0000
  H   H20       1.0  0.29670  0.51113  0.60947  1.0000
  N   N9        1.0  0.20650  0.43167  0.41449  1.0000
  H   H21       1.0  0.22205  0.42823  0.45417  1.0000
  C   C38       1.0  0.03222  0.25250  0.38590  1.0000
  C   C39       1.0  0.00361  0.25342  0.42767  1.0000
  C   C40       1.0  0.46904  0.23483  0.39134  1.0000
  N   N10       1.0  0.44259  0.23488  0.43892  1.0000
  C   C41       1.0  0.44740  0.25238  0.51662  1.0000
  C   C42       1.0  0.98163  0.27154  0.55100  1.0000
  N   N11       1.0  0.00811  0.27104  0.50574  1.0000
  H   H22       1.0  0.42651  0.25155  0.54897  1.0000
  H   H23       1.0  0.98657  0.28508  0.60949  1.0000
  N   N12       1.0  0.06602  0.27436  0.41445  1.0000
  H   H24       1.0  0.06947  0.29337  0.45407  1.0000
  C   C43       1.0  0.19509  0.82721  0.40186  1.0000
  C   C44       1.0  0.22465  0.82223  0.39502  1.0000
  C   C45       1.0  0.30973  0.68111  0.25383  1.0000
  C   C46       1.0  0.28759  0.69571  0.26794  1.0000
  C   C47       1.0  0.28225  0.74641  0.31098  1.0000
  C   C48       1.0  0.28575  0.77777  0.27482  1.0000
  C   C49       1.0  0.26712  0.79333  0.31017  1.0000
  H   H25       1.0  0.26768  0.81350  0.27482  1.0000
  H   H26       1.0  0.29958  0.78787  0.21702  1.0000
  N   N13       1.0  0.29885  0.73090  0.26959  1.0000
  H   H27       1.0  0.31837  0.74566  0.23009  1.0000
  C   C50       1.0  0.25131  0.53539  0.31095  1.0000
  C   C51       1.0  0.21999  0.50752  0.27468  1.0000
  C   C52       1.0  0.20443  0.97331  0.31001  1.0000
  H   H28       1.0  0.18423  0.95373  0.27472  1.0000
  H   H29       1.0  0.20985  0.51125  0.21696  1.0000
  N   N14       1.0  0.26678  0.56752  0.26967  1.0000
  H   H30       1.0  0.25204  0.57225  0.23002  1.0000
  C   C53       1.0  0.46231  0.71547  0.31088  1.0000
  C   C54       1.0  0.49019  0.71203  0.27462  1.0000
  C   C55       1.0  0.02438  0.73059  0.31008  1.0000
  H   H31       1.0  0.04396  0.73004  0.27466  1.0000
  H   H32       1.0  0.48644  0.69815  0.21690  1.0000
  N   N15       1.0  0.43019  0.69883  0.26960  1.0000
  H   H33       1.0  0.42545  0.67936  0.22993  1.0000
  C   C56       1.0  0.17049  0.86743  0.40183  1.0000
  C   C57       1.0  0.13630  0.83751  0.40136  1.0000
  C   C58       1.0  0.13027  0.80261  0.40182  1.0000
  C   C59       1.0  0.16018  0.79833  0.40136  1.0000
  C   C60       1.0  0.19937  0.86140  0.40149  1.0000
  H   H34       1.0  0.15629  0.77339  0.39651  1.0000
  H   H35       1.0  0.22431  0.88244  0.39657  1.0000
  H   H36       1.0  0.11525  0.84141  0.39652  1.0000
  C   C61       1.0  0.17547  0.90196  0.39501  1.0000
  C   C62       1.0  0.09573  0.77305  0.39494  1.0000
  O   O7        1.0  0.25671  0.85054  0.37734  1.0000
  O   O8        1.0  0.14718  0.90572  0.37714  1.0000
  O   O9        1.0  0.09199  0.74100  0.37718  1.0000
  C   C63       1.0  0.31659  0.62818  0.25392  1.0000
  C   C64       1.0  0.35358  0.65081  0.25296  1.0000
  C   C65       1.0  0.36953  0.68796  0.25384  1.0000
  C   C66       1.0  0.34688  0.70231  0.25301  1.0000
  C   C67       1.0  0.29538  0.64411  0.25301  1.0000
  H   H37       1.0  0.35784  0.72895  0.25880  1.0000
  H   H38       1.0  0.26874  0.62844  0.25879  1.0000
  H   H39       1.0  0.36926  0.63985  0.25883  1.0000
  C   C68       1.0  0.30197  0.59143  0.26800  1.0000
  C   C69       1.0  0.40626  0.71009  0.26799  1.0000
  O   O10       1.0  0.25246  0.67344  0.27847  1.0000
  O   O11       1.0  0.32424  0.57857  0.27847  1.0000
  O   O12       1.0  0.41912  0.74523  0.27851  1.0000
  C   C70       1.0  0.24518  0.77925  0.38594  1.0000
  C   C71       1.0  0.24427  0.74973  0.42771  1.0000
  C   C72       1.0  0.26285  0.73374  0.39136  1.0000
  N   N16       1.0  0.26277  0.70722  0.43889  1.0000
  C   C73       1.0  0.24524  0.69450  0.51654  1.0000
  C   C74       1.0  0.22608  0.70957  0.55091  1.0000
  N   N17       1.0  0.22661  0.73657  0.50572  1.0000
  H   H40       1.0  0.24606  0.67442  0.54886  1.0000
  H   H41       1.0  0.21253  0.70095  0.60939  1.0000
  N   N18       1.0  0.22333  0.79120  0.41450  1.0000
  H   H42       1.0  0.20431  0.77563  0.45410  1.0000
  C   C75       1.0  0.21846  0.96547  0.38593  1.0000
  C   C76       1.0  0.24798  0.99409  0.42768  1.0000
  C   C77       1.0  0.26397  0.52866  0.39136  1.0000
  N   N19       1.0  0.29046  0.55510  0.43893  1.0000
  C   C78       1.0  0.30316  0.55029  0.51660  1.0000
  C   C79       1.0  0.28809  0.01606  0.55099  1.0000
  N   N20       1.0  0.26111  0.98959  0.50574  1.0000
  H   H43       1.0  0.32323  0.57119  0.54895  1.0000
  H   H44       1.0  0.29670  0.01113  0.60947  1.0000
  N   N21       1.0  0.20650  0.93167  0.41449  1.0000
  H   H45       1.0  0.22205  0.92822  0.45417  1.0000
  C   C80       1.0  0.03221  0.75250  0.38590  1.0000
  C   C81       1.0  0.00361  0.75342  0.42767  1.0000
  C   C82       1.0  0.46904  0.73484  0.39134  1.0000
  N   N22       1.0  0.44259  0.73488  0.43892  1.0000
  C   C83       1.0  0.44740  0.75238  0.51662  1.0000
  C   C84       1.0  0.98164  0.77154  0.55100  1.0000
  N   N23       1.0  0.00811  0.77104  0.50574  1.0000
  H   H46       1.0  0.42651  0.75155  0.54897  1.0000
  H   H47       1.0  0.98657  0.78508  0.60949  1.0000
  N   N24       1.0  0.06602  0.77436  0.41445  1.0000
  H   H48       1.0  0.06946  0.79337  0.45407  1.0000
  C   C85       1.0  0.69509  0.32721  0.40187  1.0000
  C   C86       1.0  0.72465  0.32223  0.39502  1.0000
  C   C87       1.0  0.80973  0.18111  0.25383  1.0000
  C   C88       1.0  0.78759  0.19572  0.26794  1.0000
  C   C89       1.0  0.78225  0.24641  0.31098  1.0000
  C   C90       1.0  0.78575  0.27777  0.27482  1.0000
  C   C91       1.0  0.76712  0.29333  0.31017  1.0000
  H   H49       1.0  0.76768  0.31350  0.27482  1.0000
  H   H50       1.0  0.79958  0.28787  0.21702  1.0000
  N   N25       1.0  0.79884  0.23090  0.26959  1.0000
  H   H51       1.0  0.81837  0.24566  0.23009  1.0000
  C   C92       1.0  0.75131  0.03539  0.31095  1.0000
  C   C93       1.0  0.71999  0.00752  0.27468  1.0000
  C   C94       1.0  0.70443  0.47331  0.31001  1.0000
  H   H52       1.0  0.68423  0.45373  0.27472  1.0000
  H   H53       1.0  0.70985  0.01125  0.21696  1.0000
  N   N26       1.0  0.76678  0.06752  0.26967  1.0000
  H   H54       1.0  0.75204  0.07225  0.23002  1.0000
  C   C95       1.0  0.96231  0.21547  0.31088  1.0000
  C   C96       1.0  0.99019  0.21202  0.27462  1.0000
  C   C97       1.0  0.52438  0.23059  0.31008  1.0000
  H   H55       1.0  0.54397  0.23004  0.27466  1.0000
  H   H56       1.0  0.98643  0.19815  0.21690  1.0000
  N   N27       1.0  0.93019  0.19883  0.26960  1.0000
  H   H57       1.0  0.92545  0.17936  0.22993  1.0000
  C   C98       1.0  0.67049  0.36743  0.40183  1.0000
  C   C99       1.0  0.63630  0.33751  0.40136  1.0000
  C   C100      1.0  0.63027  0.30261  0.40182  1.0000
  C   C101      1.0  0.66018  0.29833  0.40136  1.0000
  C   C102      1.0  0.69937  0.36140  0.40149  1.0000
  H   H58       1.0  0.65629  0.27339  0.39651  1.0000
  H   H59       1.0  0.72431  0.38244  0.39657  1.0000
  H   H60       1.0  0.61525  0.34141  0.39652  1.0000
  C   C103      1.0  0.67547  0.40196  0.39501  1.0000
  C   C104      1.0  0.59574  0.27305  0.39494  1.0000
  O   O13       1.0  0.75670  0.35054  0.37734  1.0000
  O   O14       1.0  0.64717  0.40572  0.37714  1.0000
  O   O15       1.0  0.59199  0.24100  0.37718  1.0000
  C   C105      1.0  0.81659  0.12818  0.25392  1.0000
  C   C106      1.0  0.85358  0.15081  0.25296  1.0000
  C   C107      1.0  0.86953  0.18796  0.25384  1.0000
  C   C108      1.0  0.84688  0.20231  0.25301  1.0000
  C   C109      1.0  0.79538  0.14411  0.25301  1.0000
  H   H61       1.0  0.85784  0.22895  0.25880  1.0000
  H   H62       1.0  0.76874  0.12844  0.25879  1.0000
  H   H63       1.0  0.86926  0.13985  0.25883  1.0000
  C   C110      1.0  0.80197  0.09143  0.26800  1.0000
  C   C111      1.0  0.90626  0.21009  0.26799  1.0000
  O   O16       1.0  0.75246  0.17344  0.27847  1.0000
  O   O17       1.0  0.82424  0.07857  0.27847  1.0000
  O   O18       1.0  0.91912  0.24522  0.27851  1.0000
  C   C112      1.0  0.74518  0.27924  0.38594  1.0000
  C   C113      1.0  0.74427  0.24973  0.42771  1.0000
  C   C114      1.0  0.76285  0.23373  0.39136  1.0000
  N   N28       1.0  0.76277  0.20722  0.43889  1.0000
  C   C115      1.0  0.74524  0.19450  0.51654  1.0000
  C   C116      1.0  0.72608  0.20957  0.55091  1.0000
  N   N29       1.0  0.72661  0.23657  0.50572  1.0000
  H   H64       1.0  0.74606  0.17442  0.54886  1.0000
  H   H65       1.0  0.71253  0.20095  0.60939  1.0000
  N   N30       1.0  0.72333  0.29120  0.41450  1.0000
  H   H66       1.0  0.70431  0.27563  0.45410  1.0000
  C   C117      1.0  0.71846  0.46548  0.38593  1.0000
  C   C118      1.0  0.74798  0.49408  0.42768  1.0000
  C   C119      1.0  0.76397  0.02866  0.39136  1.0000
  N   N31       1.0  0.79046  0.05510  0.43893  1.0000
  C   C120      1.0  0.80317  0.05029  0.51660  1.0000
  C   C121      1.0  0.78809  0.51606  0.55099  1.0000
  N   N32       1.0  0.76111  0.48959  0.50574  1.0000
  H   H67       1.0  0.82323  0.07119  0.54895  1.0000
  H   H68       1.0  0.79670  0.51113  0.60947  1.0000
  N   N33       1.0  0.70650  0.43167  0.41449  1.0000
  H   H69       1.0  0.72205  0.42823  0.45417  1.0000
  C   C122      1.0  0.53222  0.25250  0.38590  1.0000
  C   C123      1.0  0.50361  0.25342  0.42767  1.0000
  C   C124      1.0  0.96904  0.23483  0.39134  1.0000
  N   N34       1.0  0.94259  0.23488  0.43892  1.0000
  C   C125      1.0  0.94740  0.25238  0.51662  1.0000
  C   C126      1.0  0.48163  0.27154  0.55100  1.0000
  N   N35       1.0  0.50811  0.27104  0.50574  1.0000
  H   H70       1.0  0.92651  0.25155  0.54897  1.0000
  H   H71       1.0  0.48657  0.28508  0.60949  1.0000
  N   N36       1.0  0.56602  0.27436  0.41445  1.0000
  H   H72       1.0  0.56947  0.29337  0.45407  1.0000
  C   C127      1.0  0.69509  0.82721  0.40186  1.0000
  C   C128      1.0  0.72465  0.82223  0.39502  1.0000
  C   C129      1.0  0.80973  0.68111  0.25383  1.0000
  C   C130      1.0  0.78759  0.69571  0.26794  1.0000
  C   C131      1.0  0.78225  0.74641  0.31098  1.0000
  C   C132      1.0  0.78575  0.77777  0.27482  1.0000
  C   C133      1.0  0.76712  0.79333  0.31017  1.0000
  H   H73       1.0  0.76768  0.81350  0.27482  1.0000
  H   H74       1.0  0.79958  0.78787  0.21702  1.0000
  N   N37       1.0  0.79885  0.73090  0.26959  1.0000
  H   H75       1.0  0.81837  0.74566  0.23009  1.0000
  C   C134      1.0  0.75131  0.53539  0.31095  1.0000
  C   C135      1.0  0.71999  0.50752  0.27468  1.0000
  C   C136      1.0  0.70443  0.97331  0.31001  1.0000
  H   H76       1.0  0.68423  0.95373  0.27472  1.0000
  H   H77       1.0  0.70985  0.51125  0.21696  1.0000
  N   N38       1.0  0.76678  0.56752  0.26967  1.0000
  H   H78       1.0  0.75204  0.57225  0.23002  1.0000
  C   C137      1.0  0.96231  0.71547  0.31088  1.0000
  C   C138      1.0  0.99019  0.71203  0.27462  1.0000
  C   C139      1.0  0.52438  0.73059  0.31008  1.0000
  H   H79       1.0  0.54397  0.73004  0.27466  1.0000
  H   H80       1.0  0.98643  0.69815  0.21690  1.0000
  N   N39       1.0  0.93019  0.69883  0.26960  1.0000
  H   H81       1.0  0.92545  0.67936  0.22993  1.0000
  C   C140      1.0  0.67049  0.86743  0.40183  1.0000
  C   C141      1.0  0.63630  0.83751  0.40136  1.0000
  C   C142      1.0  0.63026  0.80261  0.40182  1.0000
  C   C143      1.0  0.66018  0.79833  0.40136  1.0000
  C   C144      1.0  0.69937  0.86140  0.40149  1.0000
  H   H82       1.0  0.65629  0.77339  0.39651  1.0000
  H   H83       1.0  0.72431  0.88244  0.39657  1.0000
  H   H84       1.0  0.61525  0.84141  0.39652  1.0000
  C   C145      1.0  0.67547  0.90196  0.39501  1.0000
  C   C146      1.0  0.59574  0.77305  0.39494  1.0000
  O   O19       1.0  0.75670  0.85054  0.37734  1.0000
  O   O20       1.0  0.64717  0.90572  0.37714  1.0000
  O   O21       1.0  0.59199  0.74100  0.37718  1.0000
  C   C147      1.0  0.81659  0.62818  0.25392  1.0000
  C   C148      1.0  0.85358  0.65081  0.25296  1.0000
  C   C149      1.0  0.86953  0.68796  0.25384  1.0000
  C   C150      1.0  0.84688  0.70231  0.25301  1.0000
  C   C151      1.0  0.79538  0.64411  0.25301  1.0000
  H   H85       1.0  0.85784  0.72895  0.25880  1.0000
  H   H86       1.0  0.76874  0.62844  0.25879  1.0000
  H   H87       1.0  0.86926  0.63985  0.25883  1.0000
  C   C152      1.0  0.80197  0.59143  0.26800  1.0000
  C   C153      1.0  0.90626  0.71009  0.26799  1.0000
  O   O22       1.0  0.75246  0.67344  0.27847  1.0000
  O   O23       1.0  0.82424  0.57857  0.27847  1.0000
  O   O24       1.0  0.91912  0.74523  0.27851  1.0000
  C   C154      1.0  0.74518  0.77925  0.38594  1.0000
  C   C155      1.0  0.74427  0.74973  0.42771  1.0000
  C   C156      1.0  0.76284  0.73374  0.39136  1.0000
  N   N40       1.0  0.76277  0.70722  0.43889  1.0000
  C   C157      1.0  0.74524  0.69450  0.51654  1.0000
  C   C158      1.0  0.72608  0.70957  0.55091  1.0000
  N   N41       1.0  0.72661  0.73657  0.50572  1.0000
  H   H88       1.0  0.74606  0.67442  0.54886  1.0000
  H   H89       1.0  0.71253  0.70095  0.60939  1.0000
  N   N42       1.0  0.72333  0.79120  0.41450  1.0000
  H   H90       1.0  0.70431  0.77563  0.45410  1.0000
  C   C159      1.0  0.71846  0.96547  0.38593  1.0000
  C   C160      1.0  0.74798  0.99409  0.42768  1.0000
  C   C161      1.0  0.76397  0.52866  0.39136  1.0000
  N   N43       1.0  0.79046  0.55510  0.43893  1.0000
  C   C162      1.0  0.80316  0.55029  0.51660  1.0000
  C   C163      1.0  0.78809  0.01606  0.55099  1.0000
  N   N44       1.0  0.76111  0.98959  0.50574  1.0000
  H   H91       1.0  0.82323  0.57119  0.54895  1.0000
  H   H92       1.0  0.79670  0.01113  0.60947  1.0000
  N   N45       1.0  0.70650  0.93167  0.41449  1.0000
  H   H93       1.0  0.72205  0.92822  0.45417  1.0000
  C   C164      1.0  0.53222  0.75250  0.38590  1.0000
  C   C165      1.0  0.50361  0.75342  0.42767  1.0000
  C   C166      1.0  0.96904  0.73484  0.39134  1.0000
  N   N46       1.0  0.94259  0.73488  0.43892  1.0000
  C   C167      1.0  0.94740  0.75238  0.51662  1.0000
  C   C168      1.0  0.48163  0.77154  0.55100  1.0000
  N   N47       1.0  0.50811  0.77104  0.50574  1.0000
  H   H94       1.0  0.92651  0.75155  0.54897  1.0000
  H   H95       1.0  0.48657  0.78508  0.60949  1.0000
  N   N48       1.0  0.56602  0.77436  0.41445  1.0000
  H   H96       1.0  0.56946  0.79337  0.45407  1.0000
