data_image0
_chemical_formula_structural       C2H2C2H3C5H3CH3C3H3C5H3CH3C3H3C5H3CH3CHCHCNCNCNCNCNCNCNCNCNCNCNCNCNCNCNC5H3CH3C5H3CH3C3H3C2H2CHC2H2CHC2H2CHCHC2H2C2H2C2HC2H2C5H3CH3C3H3C5H3CH3C3H3C4H3CH2C4H2CH3C5H3CH3C5H3CH3C5H3CH3CNCNCNCNCNCNCNCNCNCNCNCNCNCNCNCNCNCNCNCNCNC5H3CH3C5H3CH3C3H3C5H3CH3C2H2CHC2H2CHCHCHC2H2C2H2C2H2
_chemical_formula_sum              "C180 H144 N36"
_cell_length_a       37.1687
_cell_length_b       37.1686
_cell_length_c       14.8375
_cell_angle_alpha    90
_cell_angle_beta     90
_cell_angle_gamma    120

_space_group_name_H-M_alt    "P 1"
_space_group_IT_number       1

loop_
  _space_group_symop_operation_xyz
  'x, y, z'

loop_
  _atom_site_type_symbol
  _atom_site_label
  _atom_site_symmetry_multiplicity
  _atom_site_fract_x
  _atom_site_fract_y
  _atom_site_fract_z
  _atom_site_occupancy
  C   C1        1.0  0.19824  0.41719  0.27726  1.0000
  C   C2        1.0  0.17588  0.37363  0.27275  1.0000
  H   H1        1.0  0.15635  0.36000  0.21899  1.0000
  H   H2        1.0  0.19404  0.43367  0.22699  1.0000
  C   C3        1.0  0.22988  0.80671  0.27721  1.0000
  C   C4        1.0  0.20869  0.82908  0.27268  1.0000
  H   H3        1.0  0.21458  0.84858  0.21889  1.0000
  H   H4        1.0  0.25054  0.81088  0.22691  1.0000
  H   H5        1.0  0.36565  0.20896  0.21897  1.0000
  C   C5        1.0  0.18111  0.21959  0.29689  1.0000
  C   C6        1.0  0.22598  0.17520  0.29663  1.0000
  C   C7        1.0  0.20372  0.17522  0.21798  1.0000
  C   C8        1.0  0.18121  0.19744  0.21813  1.0000
  C   C9        1.0  0.20533  0.15387  0.13370  1.0000
  H   H6        1.0  0.22572  0.14087  0.13792  1.0000
  H   H7        1.0  0.21724  0.17579  0.07767  1.0000
  H   H8        1.0  0.17422  0.12862  0.11699  1.0000
  C   C10       1.0  0.15966  0.19883  0.13400  1.0000
  H   H9        1.0  0.14614  0.21875  0.13856  1.0000
  H   H10       1.0  0.13475  0.16759  0.11701  1.0000
  H   H11       1.0  0.18158  0.21117  0.07803  1.0000
  C   C11       1.0  0.04944  0.82387  0.29684  1.0000
  C   C12       1.0  0.02719  0.82377  0.21807  1.0000
  C   C13       1.0  0.05014  0.84533  0.13394  1.0000
  H   H12       1.0  0.08358  0.85883  0.13850  1.0000
  H   H13       1.0  0.04382  0.87025  0.11696  1.0000
  H   H14       1.0  0.04054  0.82340  0.07797  1.0000
  C   C14       1.0  0.22524  0.04380  0.29685  1.0000
  C   C15       1.0  0.18084  0.95453  0.29657  1.0000
  C   C16       1.0  0.18085  0.97681  0.21795  1.0000
  C   C17       1.0  0.20307  0.02154  0.21810  1.0000
  C   C18       1.0  0.15948  0.95386  0.13368  1.0000
  H   H15       1.0  0.14647  0.92047  0.13789  1.0000
  H   H16       1.0  0.18139  0.96387  0.07763  1.0000
  H   H17       1.0  0.13422  0.95973  0.11701  1.0000
  C   C19       1.0  0.20445  0.04449  0.13398  1.0000
  H   H18       1.0  0.22437  0.07793  0.13854  1.0000
  H   H19       1.0  0.17321  0.03817  0.11703  1.0000
  H   H20       1.0  0.21677  0.03490  0.07799  1.0000
  C   C20       1.0  0.05045  0.22034  0.29663  1.0000
  C   C21       1.0  0.02817  0.19807  0.21798  1.0000
  C   C22       1.0  0.05113  0.19966  0.13371  1.0000
  H   H21       1.0  0.08452  0.22005  0.13795  1.0000
  H   H22       1.0  0.04113  0.21158  0.07768  1.0000
  H   H23       1.0  0.04526  0.16855  0.11703  1.0000
  C   C23       1.0  0.22960  0.64942  0.38224  1.0000
  C   C24       1.0  0.23014  0.57224  0.38341  1.0000
  C   C25       1.0  0.20257  0.57738  0.32411  1.0000
  C   C26       1.0  0.20229  0.61626  0.32355  1.0000
  C   C27       1.0  0.17794  0.54489  0.25522  1.0000
  H   H24       1.0  0.17900  0.51637  0.26269  1.0000
  H   H25       1.0  0.18925  0.55690  0.18765  1.0000
  H   H26       1.0  0.14521  0.53597  0.26010  1.0000
  C   C28       1.0  0.17735  0.62334  0.25403  1.0000
  H   H27       1.0  0.17816  0.65284  0.26017  1.0000
  H   H28       1.0  0.14470  0.59937  0.25955  1.0000
  H   H29       1.0  0.18859  0.62223  0.18664  1.0000
  C   C29       1.0  0.35545  0.57434  0.38217  1.0000
  H   H30       1.0  0.35217  0.51929  0.26073  1.0000
  C   C30       1.0  0.35293  0.77460  0.38341  1.0000
  H   H31       1.0  0.34838  0.82613  0.26346  1.0000
  C   C31       1.0  0.15860  0.24135  0.30464  1.0000
  N   N1        1.0  0.17913  0.28321  0.31794  1.0000
  C   C32       1.0  0.15868  0.30498  0.32496  1.0000
  N   N2        1.0  0.11646  0.28375  0.31779  1.0000
  C   C33       1.0  0.09471  0.24187  0.30447  1.0000
  N   N3        1.0  0.11635  0.22121  0.29800  1.0000
  C   C34       1.0  0.09371  0.84638  0.30459  1.0000
  N   N4        1.0  0.11504  0.82586  0.31788  1.0000
  C   C35       1.0  0.15726  0.84631  0.32490  1.0000
  N   N5        1.0  0.17825  0.88853  0.31773  1.0000
  C   C36       1.0  0.15811  0.91027  0.30440  1.0000
  N   N6        1.0  0.11582  0.88864  0.29794  1.0000
  C   C37       1.0  0.24700  0.08807  0.30461  1.0000
  N   N7        1.0  0.28886  0.10939  0.31790  1.0000
  C   C38       1.0  0.31062  0.15161  0.32494  1.0000
  N   N8        1.0  0.28940  0.17261  0.31778  1.0000
  C   C39       1.0  0.24752  0.15247  0.30445  1.0000
  N   N9        1.0  0.22686  0.11018  0.29798  1.0000
  C   C40       1.0  0.31211  0.54609  0.37097  1.0000
  N   N10       1.0  0.29103  0.50455  0.35302  1.0000
  C   C41       1.0  0.24850  0.48251  0.34662  1.0000
  N   N11       1.0  0.22676  0.50322  0.35475  1.0000
  C   C42       1.0  0.24621  0.54480  0.37232  1.0000
  N   N12       1.0  0.28799  0.56356  0.38023  1.0000
  C   C43       1.0  0.24478  0.69277  0.37097  1.0000
  N   N13       1.0  0.22437  0.71388  0.35302  1.0000
  C   C44       1.0  0.24488  0.75641  0.34658  1.0000
  N   N14       1.0  0.28734  0.77811  0.35474  1.0000
  C   C45       1.0  0.30943  0.75863  0.37239  1.0000
  N   N15       1.0  0.28638  0.71685  0.38028  1.0000
  C   C46       1.0  0.22680  0.43809  0.34743  1.0000
  C   C47       1.0  0.18111  0.34896  0.33802  1.0000
  C   C48       1.0  0.20853  0.36919  0.41211  1.0000
  C   C49       1.0  0.23100  0.41388  0.41750  1.0000
  C   C50       1.0  0.21255  0.34410  0.48667  1.0000
  H   H32       1.0  0.19340  0.31060  0.47904  1.0000
  H   H33       1.0  0.20323  0.35141  0.55071  1.0000
  H   H34       1.0  0.24477  0.35120  0.49161  1.0000
  C   C51       1.0  0.25702  0.43443  0.49936  1.0000
  H   H35       1.0  0.27044  0.46796  0.50219  1.0000
  H   H36       1.0  0.28261  0.42798  0.50290  1.0000
  H   H37       1.0  0.23817  0.42267  0.56022  1.0000
  C   C52       1.0  0.22224  0.77818  0.34743  1.0000
  C   C53       1.0  0.17882  0.82389  0.33798  1.0000
  C   C54       1.0  0.17163  0.79648  0.41211  1.0000
  C   C55       1.0  0.19385  0.77401  0.41752  1.0000
  C   C56       1.0  0.14255  0.79250  0.48669  1.0000
  H   H38       1.0  0.12821  0.81166  0.47904  1.0000
  H   H39       1.0  0.15919  0.80184  0.55072  1.0000
  H   H40       1.0  0.11743  0.76028  0.49169  1.0000
  C   C57       1.0  0.18839  0.74801  0.49941  1.0000
  H   H41       1.0  0.20849  0.73459  0.50226  1.0000
  H   H42       1.0  0.15634  0.72242  0.50299  1.0000
  H   H43       1.0  0.19549  0.76687  0.56026  1.0000
  C   C58       1.0  0.35461  0.17317  0.33800  1.0000
  C   C59       1.0  0.37483  0.16597  0.41209  1.0000
  C   C60       1.0  0.34974  0.13686  0.48665  1.0000
  H   H44       1.0  0.31625  0.12252  0.47902  1.0000
  H   H45       1.0  0.35705  0.15349  0.55070  1.0000
  H   H46       1.0  0.35684  0.11174  0.49159  1.0000
  C   C61       1.0  0.20493  0.22057  0.37196  1.0000
  C   C62       1.0  0.22682  0.19885  0.37187  1.0000
  H   H47       1.0  0.24267  0.19961  0.42910  1.0000
  H   H48       1.0  0.20569  0.23640  0.42923  1.0000
  C   C63       1.0  0.02661  0.80006  0.37191  1.0000
  H   H49       1.0  0.04167  0.79930  0.42918  1.0000
  C   C64       1.0  0.22623  0.02096  0.37190  1.0000
  C   C65       1.0  0.20450  0.97734  0.37180  1.0000
  H   H50       1.0  0.20528  0.96226  0.42902  1.0000
  H   H51       1.0  0.24207  0.03602  0.42916  1.0000
  C   C66       1.0  0.02764  0.22118  0.37186  1.0000
  H   H52       1.0  0.04272  0.23703  0.42908  1.0000
  C   C67       1.0  0.24940  0.63953  0.45138  1.0000
  C   C68       1.0  0.24960  0.60228  0.45204  1.0000
  H   H53       1.0  0.26776  0.59913  0.49998  1.0000
  H   H54       1.0  0.26737  0.66113  0.49905  1.0000
  C   C69       1.0  0.36530  0.60403  0.45129  1.0000
  H   H55       1.0  0.34367  0.60043  0.49884  1.0000
  C   C70       1.0  0.36347  0.75508  0.45198  1.0000
  H   H56       1.0  0.34212  0.73685  0.49981  1.0000
  C   C71       1.0  0.58778  0.77507  0.27726  1.0000
  C   C72       1.0  0.63133  0.79627  0.27273  1.0000
  H   H57       1.0  0.64496  0.79038  0.21895  1.0000
  H   H58       1.0  0.57129  0.75439  0.22698  1.0000
  C   C73       1.0  0.81237  0.58215  0.27721  1.0000
  C   C74       1.0  0.83475  0.62571  0.27269  1.0000
  H   H59       1.0  0.85426  0.63934  0.21891  1.0000
  H   H60       1.0  0.81656  0.56566  0.22693  1.0000
  C   C75       1.0  0.42284  0.22426  0.27724  1.0000
  C   C76       1.0  0.37928  0.20306  0.27273  1.0000
  H   H61       1.0  0.43932  0.24494  0.22698  1.0000
  C   C77       1.0  0.78073  0.19263  0.27724  1.0000
  C   C78       1.0  0.80192  0.17026  0.27272  1.0000
  H   H62       1.0  0.79603  0.15075  0.21894  1.0000
  H   H63       1.0  0.76006  0.18845  0.22696  1.0000
  C   C79       1.0  0.78537  0.95555  0.29684  1.0000
  C   C80       1.0  0.82978  0.04482  0.29659  1.0000
  C   C81       1.0  0.82977  0.02254  0.21795  1.0000
  C   C82       1.0  0.80754  0.97781  0.21809  1.0000
  C   C83       1.0  0.85114  0.04549  0.13368  1.0000
  H   H64       1.0  0.86415  0.07888  0.13791  1.0000
  H   H65       1.0  0.82923  0.03549  0.07764  1.0000
  H   H66       1.0  0.87639  0.03963  0.11702  1.0000
  C   C84       1.0  0.80616  0.95486  0.13397  1.0000
  H   H67       1.0  0.78623  0.92142  0.13851  1.0000
  H   H68       1.0  0.83740  0.96118  0.11702  1.0000
  H   H69       1.0  0.79385  0.96446  0.07798  1.0000
  C   C85       1.0  0.96017  0.77902  0.29657  1.0000
  C   C86       1.0  0.98246  0.80128  0.21793  1.0000
  C   C87       1.0  0.95950  0.79968  0.13364  1.0000
  H   H70       1.0  0.92611  0.77931  0.13787  1.0000
  H   H71       1.0  0.96950  0.78776  0.07762  1.0000
  H   H72       1.0  0.96537  0.83079  0.11695  1.0000
  C   C88       1.0  0.82951  0.77976  0.29682  1.0000
  C   C89       1.0  0.78464  0.82415  0.29657  1.0000
  C   C90       1.0  0.80690  0.82414  0.21793  1.0000
  C   C91       1.0  0.82941  0.80192  0.21807  1.0000
  C   C92       1.0  0.80531  0.84550  0.13366  1.0000
  H   H73       1.0  0.78492  0.85850  0.13789  1.0000
  H   H74       1.0  0.79340  0.82359  0.07762  1.0000
  H   H75       1.0  0.83642  0.87076  0.11698  1.0000
  C   C93       1.0  0.85098  0.80054  0.13394  1.0000
  H   H76       1.0  0.86450  0.78062  0.13850  1.0000
  H   H77       1.0  0.87589  0.83178  0.11698  1.0000
  H   H78       1.0  0.82906  0.78821  0.07797  1.0000
  C   C94       1.0  0.96118  0.17548  0.29687  1.0000
  C   C95       1.0  0.98344  0.17557  0.21812  1.0000
  C   C96       1.0  0.96049  0.15401  0.13399  1.0000
  H   H79       1.0  0.92705  0.14050  0.13854  1.0000
  H   H80       1.0  0.96681  0.12910  0.11703  1.0000
  H   H81       1.0  0.97009  0.17594  0.07801  1.0000
  C   C97       1.0  0.43264  0.65197  0.38350  1.0000
  C   C98       1.0  0.42761  0.61918  0.32456  1.0000
  C   C99       1.0  0.38870  0.58004  0.32394  1.0000
  C   C100      1.0  0.46021  0.62694  0.25606  1.0000
  H   H82       1.0  0.48874  0.65650  0.26364  1.0000
  H   H83       1.0  0.44834  0.62621  0.18833  1.0000
  H   H84       1.0  0.46907  0.60310  0.26133  1.0000
  C   C101      1.0  0.38171  0.54794  0.25472  1.0000
  H   H85       1.0  0.40562  0.53920  0.26075  1.0000
  H   H86       1.0  0.38299  0.56023  0.18720  1.0000
  C   C102      1.0  0.43063  0.77518  0.38228  1.0000
  C   C103      1.0  0.38574  0.80241  0.32458  1.0000
  C   C104      1.0  0.42492  0.80271  0.32405  1.0000
  C   C105      1.0  0.37798  0.82725  0.25605  1.0000
  H   H87       1.0  0.37882  0.81616  0.18832  1.0000
  H   H88       1.0  0.40177  0.85996  0.26145  1.0000
  C   C106      1.0  0.45705  0.82788  0.25493  1.0000
  H   H89       1.0  0.48574  0.82706  0.26109  1.0000
  H   H90       1.0  0.46570  0.86050  0.26093  1.0000
  H   H91       1.0  0.44482  0.81685  0.18737  1.0000
  C   C107      1.0  0.78087  0.34989  0.38228  1.0000
  C   C108      1.0  0.78034  0.42703  0.38350  1.0000
  C   C109      1.0  0.80812  0.42203  0.32462  1.0000
  C   C110      1.0  0.80840  0.38314  0.32403  1.0000
  C   C111      1.0  0.83295  0.45463  0.25608  1.0000
  H   H92       1.0  0.83188  0.48313  0.26358  1.0000
  H   H93       1.0  0.82183  0.44273  0.18836  1.0000
  H   H94       1.0  0.86567  0.46353  0.26141  1.0000
  C   C112      1.0  0.83354  0.37617  0.25485  1.0000
  H   H95       1.0  0.83269  0.34665  0.26095  1.0000
  H   H96       1.0  0.86617  0.40012  0.26084  1.0000
  H   H97       1.0  0.82251  0.37740  0.18731  1.0000
  C   C113      1.0  0.65512  0.42504  0.38215  1.0000
  C   C114      1.0  0.57789  0.34740  0.38353  1.0000
  C   C115      1.0  0.58300  0.38015  0.32437  1.0000
  C   C116      1.0  0.62191  0.41930  0.32375  1.0000
  C   C117      1.0  0.55045  0.37234  0.25568  1.0000
  H   H98       1.0  0.52192  0.34279  0.26326  1.0000
  H   H99       1.0  0.56238  0.37302  0.18804  1.0000
  H   H100      1.0  0.54159  0.39619  0.26074  1.0000
  C   C118      1.0  0.62893  0.45135  0.25437  1.0000
  H   H101      1.0  0.65847  0.48001  0.26038  1.0000
  H   H102      1.0  0.60501  0.46008  0.26019  1.0000
  H   H103      1.0  0.62771  0.43901  0.18691  1.0000
  C   C119      1.0  0.57999  0.22420  0.38217  1.0000
  C   C120      1.0  0.65764  0.22468  0.38343  1.0000
  C   C121      1.0  0.62485  0.19692  0.32452  1.0000
  C   C122      1.0  0.58570  0.19666  0.32393  1.0000
  C   C123      1.0  0.63261  0.17208  0.25600  1.0000
  H   H104      1.0  0.66219  0.17314  0.26352  1.0000
  H   H105      1.0  0.63185  0.18321  0.18827  1.0000
  H   H106      1.0  0.60879  0.13937  0.26131  1.0000
  C   C124      1.0  0.55359  0.17153  0.25474  1.0000
  H   H107      1.0  0.52492  0.17240  0.26079  1.0000
  H   H108      1.0  0.54488  0.13889  0.26076  1.0000
  H   H109      1.0  0.56586  0.18255  0.18721  1.0000
  C   C125      1.0  0.76361  0.91128  0.30459  1.0000
  N   N16       1.0  0.72176  0.88994  0.31790  1.0000
  C   C126      1.0  0.69999  0.84772  0.32492  1.0000
  N   N17       1.0  0.72122  0.82673  0.31775  1.0000
  C   C127      1.0  0.76311  0.84688  0.30441  1.0000
  N   N18       1.0  0.78376  0.88917  0.29794  1.0000
  C   C128      1.0  0.85202  0.75799  0.30457  1.0000
  N   N19       1.0  0.83150  0.71614  0.31786  1.0000
  C   C129      1.0  0.85195  0.69437  0.32488  1.0000
  N   N20       1.0  0.89417  0.71560  0.31772  1.0000
  C   C130      1.0  0.91591  0.75748  0.30439  1.0000
  N   N21       1.0  0.89428  0.77814  0.29793  1.0000
  C   C131      1.0  0.91691  0.15297  0.30461  1.0000
  N   N22       1.0  0.89558  0.17349  0.31792  1.0000
  C   C132      1.0  0.85336  0.15304  0.32493  1.0000
  N   N23       1.0  0.83236  0.11082  0.31776  1.0000
  C   C133      1.0  0.85251  0.08908  0.30443  1.0000
  N   N24       1.0  0.89480  0.11071  0.29797  1.0000
  C   C134      1.0  0.45891  0.76011  0.37110  1.0000
  N   N25       1.0  0.50043  0.78054  0.35307  1.0000
  C   C135      1.0  0.52247  0.76005  0.34663  1.0000
  N   N26       1.0  0.50174  0.71759  0.35480  1.0000
  C   C136      1.0  0.46016  0.69547  0.37246  1.0000
  N   N27       1.0  0.44143  0.71852  0.38036  1.0000
  C   C137      1.0  0.69846  0.45329  0.37099  1.0000
  N   N28       1.0  0.71955  0.49482  0.35297  1.0000
  C   C138      1.0  0.76208  0.51685  0.34656  1.0000
  N   N29       1.0  0.78381  0.49613  0.35478  1.0000
  C   C139      1.0  0.76436  0.45456  0.37248  1.0000
  N   N30       1.0  0.72258  0.43582  0.38033  1.0000
  C   C140      1.0  0.55172  0.23927  0.37100  1.0000
  N   N31       1.0  0.51019  0.21883  0.35300  1.0000
  C   C141      1.0  0.48815  0.23932  0.34662  1.0000
  N   N32       1.0  0.50886  0.28177  0.35479  1.0000
  C   C142      1.0  0.55044  0.30389  0.37241  1.0000
  N   N33       1.0  0.56919  0.28087  0.38029  1.0000
  C   C143      1.0  0.76579  0.30655  0.37107  1.0000
  N   N34       1.0  0.78621  0.28545  0.35305  1.0000
  C   C144      1.0  0.76572  0.24292  0.34660  1.0000
  N   N35       1.0  0.72326  0.22120  0.35476  1.0000
  C   C145      1.0  0.70115  0.24066  0.37239  1.0000
  N   N36       1.0  0.72419  0.28244  0.38031  1.0000
  C   C146      1.0  0.56688  0.78272  0.34746  1.0000
  C   C147      1.0  0.65601  0.82616  0.33800  1.0000
  C   C148      1.0  0.63579  0.83335  0.41212  1.0000
  C   C149      1.0  0.59110  0.81113  0.41752  1.0000
  C   C150      1.0  0.66088  0.86245  0.48668  1.0000
  H   H110      1.0  0.69438  0.87680  0.47903  1.0000
  H   H111      1.0  0.65358  0.84582  0.55071  1.0000
  H   H112      1.0  0.65378  0.88757  0.49165  1.0000
  C   C151      1.0  0.57056  0.81659  0.49940  1.0000
  H   H113      1.0  0.53703  0.79648  0.50226  1.0000
  H   H114      1.0  0.57701  0.84864  0.50295  1.0000
  H   H115      1.0  0.58233  0.80951  0.56026  1.0000
  C   C152      1.0  0.78382  0.56126  0.34739  1.0000
  C   C153      1.0  0.82953  0.65039  0.33795  1.0000
  C   C154      1.0  0.80212  0.63018  0.41207  1.0000
  C   C155      1.0  0.77965  0.58548  0.41747  1.0000
  C   C156      1.0  0.79812  0.65527  0.48664  1.0000
  H   H116      1.0  0.81728  0.68876  0.47900  1.0000
  H   H117      1.0  0.80744  0.64796  0.55067  1.0000
  H   H118      1.0  0.76590  0.64817  0.49160  1.0000
  C   C157      1.0  0.75363  0.56494  0.49934  1.0000
  H   H119      1.0  0.74020  0.53141  0.50218  1.0000
  H   H120      1.0  0.72804  0.57140  0.50290  1.0000
  H   H121      1.0  0.77248  0.57670  0.56020  1.0000
  C   C158      1.0  0.44374  0.21660  0.34742  1.0000
  C   C159      1.0  0.41952  0.18819  0.41748  1.0000
  C   C160      1.0  0.44007  0.18272  0.49935  1.0000
  H   H122      1.0  0.47360  0.20282  0.50219  1.0000
  H   H123      1.0  0.43362  0.15068  0.50290  1.0000
  H   H124      1.0  0.42832  0.18981  0.56021  1.0000
  C   C161      1.0  0.78838  0.22117  0.34744  1.0000
  C   C162      1.0  0.83180  0.17546  0.33800  1.0000
  C   C163      1.0  0.83900  0.20287  0.41213  1.0000
  C   C164      1.0  0.81678  0.22535  0.41752  1.0000
  C   C165      1.0  0.86808  0.20687  0.48670  1.0000
  H   H125      1.0  0.88243  0.18771  0.47906  1.0000
  H   H126      1.0  0.85145  0.19754  0.55073  1.0000
  H   H127      1.0  0.89321  0.23909  0.49168  1.0000
  C   C166      1.0  0.82224  0.25135  0.49940  1.0000
  H   H128      1.0  0.80214  0.26478  0.50225  1.0000
  H   H129      1.0  0.85429  0.27695  0.50297  1.0000
  H   H130      1.0  0.81515  0.23250  0.56026  1.0000
  C   C167      1.0  0.78438  0.97838  0.37190  1.0000
  C   C168      1.0  0.80611  0.02200  0.37182  1.0000
  H   H131      1.0  0.80533  0.03708  0.42904  1.0000
  H   H132      1.0  0.76855  0.96332  0.42916  1.0000
  C   C169      1.0  0.98298  0.77818  0.37182  1.0000
  H   H133      1.0  0.96790  0.76233  0.42904  1.0000
  C   C170      1.0  0.80569  0.77877  0.37189  1.0000
  C   C171      1.0  0.78380  0.80049  0.37180  1.0000
  H   H134      1.0  0.76794  0.79972  0.42903  1.0000
  H   H135      1.0  0.80492  0.76294  0.42915  1.0000
  C   C172      1.0  0.98401  0.19929  0.37194  1.0000
  H   H136      1.0  0.96895  0.20006  0.42920  1.0000
  C   C173      1.0  0.40257  0.64144  0.45204  1.0000
  H   H137      1.0  0.40570  0.66278  0.49991  1.0000
  C   C174      1.0  0.40093  0.75531  0.45135  1.0000
  H   H138      1.0  0.40453  0.73728  0.49893  1.0000
  C   C175      1.0  0.76102  0.35974  0.45138  1.0000
  C   C176      1.0  0.76083  0.39698  0.45206  1.0000
  H   H139      1.0  0.74260  0.40010  0.49992  1.0000
  H   H140      1.0  0.74299  0.33810  0.49895  1.0000
  C   C177      1.0  0.64524  0.39537  0.45132  1.0000
  C   C178      1.0  0.60797  0.35796  0.45206  1.0000
  H   H141      1.0  0.60482  0.33663  0.49999  1.0000
  H   H142      1.0  0.66686  0.39898  0.49893  1.0000
  C   C179      1.0  0.60968  0.24404  0.45128  1.0000
  C   C180      1.0  0.64711  0.24421  0.45199  1.0000
  H   H143      1.0  0.66845  0.26243  0.49986  1.0000
  H   H144      1.0  0.60608  0.26208  0.49884  1.0000
