data_image0
_chemical_formula_structural       C8H8CNC2ONH2CHCNC2ONH2CHC3NC3NC5NC5NC20H18N5C2HCHNC2HCH
_chemical_formula_sum              "C58 H36 N14 O2"
_cell_length_a       25.5924
_cell_length_b       25.5905
_cell_length_c       14.6708
_cell_angle_alpha    90
_cell_angle_beta     90
_cell_angle_gamma    90.03

_space_group_name_H-M_alt    "P 1"
_space_group_IT_number       1

loop_
  _space_group_symop_operation_xyz
  'x, y, z'

loop_
  _atom_site_type_symbol
  _atom_site_label
  _atom_site_symmetry_multiplicity
  _atom_site_fract_x
  _atom_site_fract_y
  _atom_site_fract_z
  _atom_site_occupancy
  C   C1        1.0  0.23395  0.00189  0.29000  1.0000
  C   C2        1.0  0.28903  0.00229  0.28865  1.0000
  C   C3        1.0  0.00405  0.78933  0.28973  1.0000
  C   C4        1.0  0.00411  0.73424  0.28829  1.0000
  C   C5        1.0  0.73564  0.02108  0.29934  1.0000
  C   C6        1.0  0.79068  0.02187  0.29913  1.0000
  C   C7        1.0  0.02378  0.23233  0.29958  1.0000
  C   C8        1.0  0.02319  0.28738  0.29957  1.0000
  H   H1        1.0  0.03139  0.30647  0.24007  1.0000
  H   H2        1.0  0.03283  0.21304  0.24051  1.0000
  H   H3        1.0  0.80988  0.03154  0.24025  1.0000
  H   H4        1.0  0.71644  0.02973  0.24014  1.0000
  H   H5        1.0  0.99681  0.80927  0.23056  1.0000
  H   H6        1.0  0.99684  0.71545  0.22796  1.0000
  H   H7        1.0  0.30788  0.99539  0.22826  1.0000
  H   H8        1.0  0.21409  0.99476  0.23070  1.0000
  C   C9        1.0  0.01817  0.45704  0.34953  1.0000
  N   N1        1.0  0.01839  0.54752  0.30959  1.0000
  C   C10       1.0  0.02061  0.49676  0.28155  1.0000
  C   C11       1.0  0.02515  0.48821  0.18633  1.0000
  O   O1        1.0  0.05162  0.52373  0.13587  1.0000
  N   N2        1.0  0.99925  0.45012  0.14103  1.0000
  H   H9        1.0  0.97419  0.42770  0.17177  1.0000
  H   H10       1.0  0.00076  0.44866  0.07482  1.0000
  C   C12       1.0  0.02629  0.40423  0.33253  1.0000
  H   H11       1.0  0.04844  0.39445  0.27962  1.0000
  C   C13       1.0  0.56612  0.01621  0.35019  1.0000
  N   N3        1.0  0.47565  0.01674  0.31030  1.0000
  C   C14       1.0  0.52642  0.01902  0.28225  1.0000
  C   C15       1.0  0.53497  0.02400  0.18709  1.0000
  O   O2        1.0  0.49946  0.05067  0.13701  1.0000
  N   N4        1.0  0.57309  0.99840  0.14143  1.0000
  H   H12       1.0  0.59551  0.97321  0.17180  1.0000
  H   H13       1.0  0.57455  0.00022  0.07525  1.0000
  C   C16       1.0  0.61893  0.02438  0.33325  1.0000
  H   H14       1.0  0.62871  0.04708  0.28106  1.0000
  C   C17       1.0  0.10936  0.14616  0.37899  1.0000
  C   C18       1.0  0.14769  0.10823  0.37678  1.0000
  C   C19       1.0  0.12348  0.05927  0.37548  1.0000
  N   N5        1.0  0.07141  0.06955  0.37601  1.0000
  C   C20       1.0  0.06062  0.12151  0.37779  1.0000
  C   C21       1.0  0.01154  0.14789  0.37888  1.0000
  C   C22       1.0  0.96219  0.12223  0.37883  1.0000
  N   N6        1.0  0.95223  0.07026  0.37837  1.0000
  C   C23       1.0  0.90038  0.05976  0.37862  1.0000
  C   C24       1.0  0.87544  0.10830  0.37967  1.0000
  C   C25       1.0  0.91338  0.14665  0.37882  1.0000
  C   C26       1.0  0.87524  0.01015  0.37835  1.0000
  C   C27       1.0  0.90213  0.96135  0.37687  1.0000
  N   N7        1.0  0.95420  0.95111  0.37668  1.0000
  C   C28       1.0  0.96501  0.89917  0.37425  1.0000
  C   C29       1.0  0.91631  0.87445  0.37335  1.0000
  C   C30       1.0  0.87797  0.91238  0.37415  1.0000
  C   C31       1.0  0.01408  0.87283  0.37325  1.0000
  C   C32       1.0  0.06344  0.89842  0.37361  1.0000
  N   N8        1.0  0.07338  0.95038  0.37408  1.0000
  C   C33       1.0  0.12523  0.96085  0.37324  1.0000
  C   C34       1.0  0.15018  0.91231  0.37265  1.0000
  C   C35       1.0  0.11222  0.87396  0.37227  1.0000
  C   C36       1.0  0.15033  0.01046  0.37351  1.0000
  C   C37       1.0  0.20630  0.01114  0.37186  1.0000
  C   C38       1.0  0.31814  0.01175  0.36879  1.0000
  C   C39       1.0  0.29028  0.02151  0.45050  1.0000
  C   C40       1.0  0.23523  0.02096  0.45212  1.0000
  C   C41       1.0  0.01390  0.81686  0.37150  1.0000
  C   C42       1.0  0.01387  0.70503  0.36820  1.0000
  C   C43       1.0  0.02426  0.73279  0.44979  1.0000
  C   C44       1.0  0.02403  0.78784  0.45153  1.0000
  C   C45       1.0  0.81923  0.00938  0.37869  1.0000
  C   C46       1.0  0.79115  0.99565  0.45820  1.0000
  C   C47       1.0  0.73608  0.99434  0.45794  1.0000
  C   C48       1.0  0.70740  0.00757  0.37899  1.0000
  C   C49       1.0  0.01166  0.20391  0.37947  1.0000
  C   C50       1.0  0.99865  0.23214  0.45917  1.0000
  C   C51       1.0  0.01019  0.31576  0.37933  1.0000
  C   C52       1.0  0.99752  0.28722  0.45871  1.0000
  H   H15       1.0  0.98745  0.30647  0.51732  1.0000
  H   H16       1.0  0.98933  0.21269  0.51796  1.0000
  H   H17       1.0  0.11671  0.18541  0.38097  1.0000
  H   H18       1.0  0.18688  0.11593  0.37660  1.0000
  H   H19       1.0  0.04500  0.04289  0.37460  1.0000
  H   H20       1.0  0.98060  0.97778  0.37861  1.0000
  H   H21       1.0  0.90583  0.18586  0.37868  1.0000
  H   H22       1.0  0.83615  0.11542  0.38046  1.0000
  H   H23       1.0  0.81070  0.98611  0.51676  1.0000
  H   H24       1.0  0.71692  0.98389  0.51646  1.0000
  H   H25       1.0  0.83880  0.90463  0.37276  1.0000
  H   H26       1.0  0.90902  0.83519  0.37164  1.0000
  H   H27       1.0  0.18948  0.90524  0.37222  1.0000
  H   H28       1.0  0.11968  0.83473  0.37115  1.0000
  H   H29       1.0  0.03168  0.80668  0.51165  1.0000
  H   H30       1.0  0.03257  0.71325  0.50877  1.0000
  H   H31       1.0  0.21632  0.02803  0.51238  1.0000
  H   H32       1.0  0.30975  0.02952  0.50968  1.0000
  N   N9        1.0  0.01409  0.65286  0.36115  1.0000
  N   N10       1.0  0.65525  0.00474  0.38348  1.0000
  N   N11       1.0  0.00732  0.36792  0.38357  1.0000
  N   N12       1.0  0.37032  0.01209  0.36184  1.0000
  N   N13       1.0  0.01290  0.47285  0.43768  1.0000
  C   C53       1.0  0.00953  0.52357  0.46395  1.0000
  C   C54       1.0  0.01306  0.56339  0.39761  1.0000
  H   H33       1.0  0.00583  0.53202  0.53177  1.0000
  C   C55       1.0  0.01171  0.61601  0.42089  1.0000
  H   H34       1.0  0.00853  0.62538  0.48642  1.0000
  N   N14       1.0  0.55034  0.01058  0.43827  1.0000
  C   C56       1.0  0.49962  0.00717  0.46452  1.0000
  C   C57       1.0  0.45979  0.01105  0.39827  1.0000
  H   H35       1.0  0.49117  0.00318  0.53230  1.0000
  C   C58       1.0  0.40716  0.00963  0.42155  1.0000
  H   H36       1.0  0.39780  0.00625  0.48705  1.0000
