data_image0
_chemical_formula_structural       C2HC2H3N2CNC2OHCHCNC2OHCHC4NC4NH4N3C2HCHNC2HCHC2HC2H3N2CNC2OHCHCNC2OHCHC4NC4NH4N3C2HCHNC2HCHC2HC2H3N2CNC2OHCHCNC2OHCHC4NC4NH4N3C2HCHNC2HCHC2HC2H3N2CNC2OHCHCNC2OHCHC4NC4NH4N3C2HCHNC2HCH
_chemical_formula_sum              "C104 H64 N40 O8"
_cell_length_a       31.2006
_cell_length_b       31.2006
_cell_length_c       14.8858
_cell_angle_alpha    90
_cell_angle_beta     90
_cell_angle_gamma    90

_space_group_name_H-M_alt    "P 1"
_space_group_IT_number       1

loop_
  _space_group_symop_operation_xyz
  'x, y, z'

loop_
  _atom_site_type_symbol
  _atom_site_label
  _atom_site_symmetry_multiplicity
  _atom_site_fract_x
  _atom_site_fract_y
  _atom_site_fract_z
  _atom_site_occupancy
  C   C1        1.0  0.50128  0.43823  0.32710  1.0000
  C   C2        1.0  0.46963  0.40574  0.32687  1.0000
  H   H1        1.0  0.03206  0.42786  0.32649  1.0000
  C   C3        1.0  0.04662  0.09325  0.32521  1.0000
  C   C4        1.0  0.01516  0.06057  0.32521  1.0000
  H   H2        1.0  0.48439  0.07079  0.32342  1.0000
  H   H3        1.0  0.11470  0.14355  0.32541  1.0000
  H   H4        1.0  0.40131  0.35565  0.32665  1.0000
  N   N1        1.0  0.03627  0.13556  0.32380  1.0000
  N   N2        1.0  0.47972  0.36342  0.32634  1.0000
  C   C5        1.0  0.00186  0.20442  0.32145  1.0000
  N   N3        1.0  0.47249  0.27492  0.32094  1.0000
  C   C6        1.0  0.96539  0.23181  0.31853  1.0000
  C   C7        1.0  0.92355  0.21723  0.31278  1.0000
  O   O1        1.0  0.89364  0.24208  0.32305  1.0000
  H   H5        1.0  0.91778  0.19392  0.26907  1.0000
  C   C8        1.0  0.00003  0.15924  0.32175  1.0000
  H   H6        1.0  0.97112  0.14399  0.32081  1.0000
  C   C9        1.0  0.30325  0.00581  0.32510  1.0000
  N   N4        1.0  0.23277  0.53521  0.32450  1.0000
  C   C10       1.0  0.27589  0.04230  0.32226  1.0000
  C   C11       1.0  0.29064  0.08413  0.31649  1.0000
  O   O2        1.0  0.26572  0.11379  0.32887  1.0000
  H   H7        1.0  0.31277  0.08951  0.27002  1.0000
  C   C12       1.0  0.34843  0.00765  0.32510  1.0000
  H   H8        1.0  0.36367  0.03657  0.32399  1.0000
  C   C13       1.0  0.49185  0.48299  0.32715  1.0000
  C   C14       1.0  0.42555  0.41697  0.32674  1.0000
  C   C15       1.0  0.41443  0.46105  0.32677  1.0000
  C   C16       1.0  0.44711  0.49252  0.32707  1.0000
  N   N5        1.0  0.39448  0.38602  0.32656  1.0000
  C   C17       1.0  0.02469  0.01583  0.32710  1.0000
  C   C18       1.0  0.06945  0.00641  0.32874  1.0000
  C   C19       1.0  0.10193  0.03808  0.32819  1.0000
  C   C20       1.0  0.09070  0.08214  0.32663  1.0000
  N   N6        1.0  0.12165  0.11322  0.32645  1.0000
  H   H9        1.0  0.15202  0.10640  0.32754  1.0000
  H   H10       1.0  0.36414  0.39296  0.32655  1.0000
  H   H11       1.0  0.43688  0.02330  0.32776  1.0000
  H   H12       1.0  0.07981  0.47564  0.33041  1.0000
  N   N7        1.0  0.14425  0.02798  0.32859  1.0000
  N   N8        1.0  0.37212  0.47140  0.32626  1.0000
  N   N9        1.0  0.04110  0.22357  0.32557  1.0000
  C   C21       1.0  0.54749  0.26656  0.32724  1.0000
  C   C22       1.0  0.51164  0.29397  0.32530  1.0000
  H   H13       1.0  0.57803  0.27828  0.33050  1.0000
  C   C23       1.0  0.51535  0.33887  0.32713  1.0000
  H   H14       1.0  0.54492  0.35288  0.32954  1.0000
  N   N10       1.0  0.28410  0.96658  0.32917  1.0000
  C   C24       1.0  0.24110  0.46021  0.33090  1.0000
  C   C25       1.0  0.21371  0.49606  0.32881  1.0000
  H   H15       1.0  0.22937  0.42967  0.33402  1.0000
  C   C26       1.0  0.16881  0.49237  0.33032  1.0000
  H   H16       1.0  0.15478  0.46279  0.33263  1.0000
  C   C27       1.0  0.50128  0.93823  0.32710  1.0000
  C   C28       1.0  0.46963  0.90574  0.32687  1.0000
  H   H17       1.0  0.03206  0.92786  0.32649  1.0000
  C   C29       1.0  0.04662  0.59325  0.32521  1.0000
  C   C30       1.0  0.01516  0.56057  0.32521  1.0000
  H   H18       1.0  0.48439  0.57079  0.32342  1.0000
  H   H19       1.0  0.11470  0.64355  0.32541  1.0000
  H   H20       1.0  0.40131  0.85565  0.32665  1.0000
  N   N11       1.0  0.03627  0.63555  0.32380  1.0000
  N   N12       1.0  0.47972  0.86342  0.32634  1.0000
  C   C31       1.0  0.00186  0.70442  0.32145  1.0000
  N   N13       1.0  0.47249  0.77492  0.32094  1.0000
  C   C32       1.0  0.96539  0.73181  0.31853  1.0000
  C   C33       1.0  0.92355  0.71723  0.31278  1.0000
  O   O3        1.0  0.89364  0.74208  0.32305  1.0000
  H   H21       1.0  0.91778  0.69393  0.26907  1.0000
  C   C34       1.0  0.00003  0.65924  0.32175  1.0000
  H   H22       1.0  0.97112  0.64399  0.32081  1.0000
  C   C35       1.0  0.30325  0.50581  0.32510  1.0000
  N   N14       1.0  0.23277  0.03521  0.32450  1.0000
  C   C36       1.0  0.27589  0.54230  0.32226  1.0000
  C   C37       1.0  0.29064  0.58413  0.31649  1.0000
  O   O4        1.0  0.26572  0.61379  0.32887  1.0000
  H   H23       1.0  0.31277  0.58951  0.27002  1.0000
  C   C38       1.0  0.34843  0.50765  0.32510  1.0000
  H   H24       1.0  0.36367  0.53657  0.32399  1.0000
  C   C39       1.0  0.49185  0.98299  0.32715  1.0000
  C   C40       1.0  0.42555  0.91697  0.32674  1.0000
  C   C41       1.0  0.41443  0.96105  0.32677  1.0000
  C   C42       1.0  0.44711  0.99252  0.32707  1.0000
  N   N15       1.0  0.39448  0.88602  0.32656  1.0000
  C   C43       1.0  0.02469  0.51584  0.32710  1.0000
  C   C44       1.0  0.06945  0.50641  0.32874  1.0000
  C   C45       1.0  0.10193  0.53808  0.32819  1.0000
  C   C46       1.0  0.09070  0.58214  0.32663  1.0000
  N   N16       1.0  0.12165  0.61322  0.32645  1.0000
  H   H25       1.0  0.15202  0.60640  0.32754  1.0000
  H   H26       1.0  0.36414  0.89296  0.32655  1.0000
  H   H27       1.0  0.43688  0.52330  0.32776  1.0000
  H   H28       1.0  0.07981  0.97564  0.33041  1.0000
  N   N17       1.0  0.14425  0.52798  0.32859  1.0000
  N   N18       1.0  0.37212  0.97140  0.32626  1.0000
  N   N19       1.0  0.04110  0.72357  0.32557  1.0000
  C   C47       1.0  0.54749  0.76656  0.32724  1.0000
  C   C48       1.0  0.51164  0.79397  0.32530  1.0000
  H   H29       1.0  0.57803  0.77828  0.33050  1.0000
  C   C49       1.0  0.51535  0.83887  0.32713  1.0000
  H   H30       1.0  0.54492  0.85288  0.32954  1.0000
  N   N20       1.0  0.28410  0.46658  0.32917  1.0000
  C   C50       1.0  0.24110  0.96021  0.33090  1.0000
  C   C51       1.0  0.21371  0.99606  0.32881  1.0000
  H   H31       1.0  0.22937  0.92967  0.33402  1.0000
  C   C52       1.0  0.16881  0.99237  0.33032  1.0000
  H   H32       1.0  0.15478  0.96279  0.33263  1.0000
  C   C53       1.0  0.00129  0.43823  0.32710  1.0000
  C   C54       1.0  0.96962  0.40574  0.32687  1.0000
  H   H33       1.0  0.53206  0.42786  0.32649  1.0000
  C   C55       1.0  0.54662  0.09325  0.32521  1.0000
  C   C56       1.0  0.51516  0.06057  0.32521  1.0000
  H   H34       1.0  0.98439  0.07079  0.32342  1.0000
  H   H35       1.0  0.61470  0.14355  0.32541  1.0000
  H   H36       1.0  0.90131  0.35565  0.32665  1.0000
  N   N21       1.0  0.53627  0.13556  0.32380  1.0000
  N   N22       1.0  0.97972  0.36342  0.32634  1.0000
  C   C57       1.0  0.50186  0.20442  0.32145  1.0000
  N   N23       1.0  0.97249  0.27492  0.32094  1.0000
  C   C58       1.0  0.46539  0.23181  0.31853  1.0000
  C   C59       1.0  0.42355  0.21723  0.31278  1.0000
  O   O5        1.0  0.39364  0.24208  0.32305  1.0000
  H   H37       1.0  0.41778  0.19392  0.26907  1.0000
  C   C60       1.0  0.50003  0.15924  0.32175  1.0000
  H   H38       1.0  0.47112  0.14399  0.32081  1.0000
  C   C61       1.0  0.80325  0.00581  0.32510  1.0000
  N   N24       1.0  0.73276  0.53521  0.32450  1.0000
  C   C62       1.0  0.77589  0.04230  0.32226  1.0000
  C   C63       1.0  0.79064  0.08413  0.31649  1.0000
  O   O6        1.0  0.76572  0.11379  0.32887  1.0000
  H   H39       1.0  0.81277  0.08951  0.27002  1.0000
  C   C64       1.0  0.84843  0.00765  0.32510  1.0000
  H   H40       1.0  0.86367  0.03657  0.32399  1.0000
  C   C65       1.0  0.99185  0.48299  0.32715  1.0000
  C   C66       1.0  0.92555  0.41697  0.32674  1.0000
  C   C67       1.0  0.91443  0.46105  0.32677  1.0000
  C   C68       1.0  0.94711  0.49252  0.32707  1.0000
  N   N25       1.0  0.89448  0.38602  0.32656  1.0000
  C   C69       1.0  0.52469  0.01583  0.32710  1.0000
  C   C70       1.0  0.56945  0.00641  0.32874  1.0000
  C   C71       1.0  0.60193  0.03808  0.32819  1.0000
  C   C72       1.0  0.59070  0.08214  0.32663  1.0000
  N   N26       1.0  0.62165  0.11322  0.32645  1.0000
  H   H41       1.0  0.65202  0.10640  0.32754  1.0000
  H   H42       1.0  0.86414  0.39296  0.32655  1.0000
  H   H43       1.0  0.93688  0.02330  0.32776  1.0000
  H   H44       1.0  0.57981  0.47564  0.33041  1.0000
  N   N27       1.0  0.64425  0.02798  0.32859  1.0000
  N   N28       1.0  0.87212  0.47140  0.32626  1.0000
  N   N29       1.0  0.54109  0.22357  0.32557  1.0000
  C   C73       1.0  0.04749  0.26656  0.32724  1.0000
  C   C74       1.0  0.01164  0.29397  0.32530  1.0000
  H   H45       1.0  0.07803  0.27828  0.33050  1.0000
  C   C75       1.0  0.01535  0.33887  0.32713  1.0000
  H   H46       1.0  0.04492  0.35288  0.32954  1.0000
  N   N30       1.0  0.78410  0.96658  0.32917  1.0000
  C   C76       1.0  0.74110  0.46021  0.33090  1.0000
  C   C77       1.0  0.71371  0.49606  0.32881  1.0000
  H   H47       1.0  0.72937  0.42967  0.33402  1.0000
  C   C78       1.0  0.66881  0.49237  0.33032  1.0000
  H   H48       1.0  0.65478  0.46279  0.33263  1.0000
  C   C79       1.0  0.00129  0.93823  0.32710  1.0000
  C   C80       1.0  0.96962  0.90574  0.32687  1.0000
  H   H49       1.0  0.53206  0.92786  0.32649  1.0000
  C   C81       1.0  0.54662  0.59325  0.32521  1.0000
  C   C82       1.0  0.51516  0.56057  0.32521  1.0000
  H   H50       1.0  0.98439  0.57079  0.32342  1.0000
  H   H51       1.0  0.61470  0.64355  0.32541  1.0000
  H   H52       1.0  0.90131  0.85565  0.32665  1.0000
  N   N31       1.0  0.53627  0.63555  0.32380  1.0000
  N   N32       1.0  0.97972  0.86342  0.32634  1.0000
  C   C83       1.0  0.50186  0.70442  0.32145  1.0000
  N   N33       1.0  0.97249  0.77492  0.32094  1.0000
  C   C84       1.0  0.46539  0.73181  0.31853  1.0000
  C   C85       1.0  0.42355  0.71723  0.31278  1.0000
  O   O7        1.0  0.39364  0.74208  0.32305  1.0000
  H   H53       1.0  0.41778  0.69393  0.26907  1.0000
  C   C86       1.0  0.50003  0.65924  0.32175  1.0000
  H   H54       1.0  0.47112  0.64399  0.32081  1.0000
  C   C87       1.0  0.80325  0.50581  0.32510  1.0000
  N   N34       1.0  0.73276  0.03521  0.32450  1.0000
  C   C88       1.0  0.77589  0.54230  0.32226  1.0000
  C   C89       1.0  0.79064  0.58413  0.31649  1.0000
  O   O8        1.0  0.76572  0.61379  0.32887  1.0000
  H   H55       1.0  0.81277  0.58951  0.27002  1.0000
  C   C90       1.0  0.84843  0.50765  0.32510  1.0000
  H   H56       1.0  0.86367  0.53657  0.32399  1.0000
  C   C91       1.0  0.99185  0.98299  0.32715  1.0000
  C   C92       1.0  0.92555  0.91697  0.32674  1.0000
  C   C93       1.0  0.91443  0.96105  0.32677  1.0000
  C   C94       1.0  0.94711  0.99252  0.32707  1.0000
  N   N35       1.0  0.89448  0.88602  0.32656  1.0000
  C   C95       1.0  0.52469  0.51584  0.32710  1.0000
  C   C96       1.0  0.56945  0.50641  0.32874  1.0000
  C   C97       1.0  0.60193  0.53808  0.32819  1.0000
  C   C98       1.0  0.59070  0.58214  0.32663  1.0000
  N   N36       1.0  0.62165  0.61322  0.32645  1.0000
  H   H57       1.0  0.65202  0.60640  0.32754  1.0000
  H   H58       1.0  0.86414  0.89296  0.32655  1.0000
  H   H59       1.0  0.93688  0.52330  0.32776  1.0000
  H   H60       1.0  0.57981  0.97564  0.33041  1.0000
  N   N37       1.0  0.64425  0.52798  0.32859  1.0000
  N   N38       1.0  0.87212  0.97140  0.32626  1.0000
  N   N39       1.0  0.54109  0.72357  0.32557  1.0000
  C   C99       1.0  0.04749  0.76656  0.32724  1.0000
  C   C100      1.0  0.01164  0.79397  0.32530  1.0000
  H   H61       1.0  0.07803  0.77828  0.33050  1.0000
  C   C101      1.0  0.01535  0.83887  0.32713  1.0000
  H   H62       1.0  0.04492  0.85288  0.32954  1.0000
  N   N40       1.0  0.78410  0.46658  0.32917  1.0000
  C   C102      1.0  0.74110  0.96021  0.33090  1.0000
  C   C103      1.0  0.71371  0.99606  0.32881  1.0000
  H   H63       1.0  0.72937  0.92967  0.33402  1.0000
  C   C104      1.0  0.66881  0.99237  0.33032  1.0000
  H   H64       1.0  0.65478  0.96279  0.33263  1.0000
