data_image0
_chemical_formula_structural       C2H2CN2CH2C4NC7NC35H21C21H18C16H16N12C18H17C3NC3NC2NC5NC34H24C3NC3NC5NC5NC36H26C8H4C8H4C8H4C8H4C8H4C8H4
_chemical_formula_sum              "C252 H150 N24"
_cell_length_a       58.5377
_cell_length_b       58.5378
_cell_length_c       14.962
_cell_angle_alpha    89.7732
_cell_angle_beta     90.2268
_cell_angle_gamma    120

_space_group_name_H-M_alt    "P 1"
_space_group_IT_number       1

loop_
  _space_group_symop_operation_xyz
  'x, y, z'

loop_
  _atom_site_type_symbol
  _atom_site_label
  _atom_site_symmetry_multiplicity
  _atom_site_fract_x
  _atom_site_fract_y
  _atom_site_fract_z
  _atom_site_occupancy
  C   C1        1.0  0.01172  0.50458  0.32109  1.0000
  C   C2        1.0  0.01207  0.60325  0.31901  1.0000
  H   H1        1.0  0.00871  0.46608  0.31329  1.0000
  H   H2        1.0  0.00958  0.63904  0.30985  1.0000
  C   C3        1.0  0.02020  0.48616  0.31566  1.0000
  N   N1        1.0  0.03406  0.52849  0.32262  1.0000
  N   N2        1.0  0.03427  0.60142  0.32253  1.0000
  C   C4        1.0  0.02087  0.63024  0.31359  1.0000
  H   H3        1.0  0.03414  0.54484  0.32935  1.0000
  H   H4        1.0  0.03419  0.58507  0.32944  1.0000
  C   C5        1.0  0.04744  0.49969  0.31391  1.0000
  C   C6        1.0  0.05624  0.52667  0.31916  1.0000
  C   C7        1.0  0.98492  0.49829  0.32516  1.0000
  C   C8        1.0  0.97637  0.51713  0.32653  1.0000
  N   N3        1.0  0.99129  0.54370  0.32193  1.0000
  C   C9        1.0  0.97646  0.55548  0.32441  1.0000
  C   C10       1.0  0.95030  0.53509  0.33100  1.0000
  C   C11       1.0  0.95024  0.51149  0.33201  1.0000
  C   C12       1.0  0.98515  0.58290  0.32109  1.0000
  C   C13       1.0  0.05660  0.62534  0.32095  1.0000
  C   C14       1.0  0.04811  0.64376  0.31538  1.0000
  C   C15       1.0  0.08341  0.63162  0.32515  1.0000
  N   N4        1.0  0.07702  0.58622  0.32204  1.0000
  C   C16       1.0  0.09186  0.57444  0.32449  1.0000
  C   C17       1.0  0.11803  0.59483  0.33103  1.0000
  C   C18       1.0  0.11810  0.61842  0.33206  1.0000
  C   C19       1.0  0.08317  0.54702  0.32117  1.0000
  C   C20       1.0  0.10300  0.53961  0.32049  1.0000
  C   C21       1.0  0.11805  0.54309  0.24277  1.0000
  C   C22       1.0  0.13920  0.53809  0.24445  1.0000
  C   C23       1.0  0.14567  0.52911  0.32336  1.0000
  C   C24       1.0  0.16813  0.52569  0.32696  1.0000
  C   C25       1.0  0.21571  0.54349  0.30678  1.0000
  C   C26       1.0  0.19309  0.54593  0.29742  1.0000
  C   C27       1.0  0.10330  0.65876  0.32933  1.0000
  C   C28       1.0  0.11441  0.67349  0.25052  1.0000
  C   C29       1.0  0.13543  0.69968  0.25523  1.0000
  C   C30       1.0  0.14611  0.71179  0.33861  1.0000
  C   C31       1.0  0.16848  0.73781  0.34356  1.0000
  C   C32       1.0  0.17030  0.75876  0.29051  1.0000
  C   C33       1.0  0.19235  0.78437  0.29659  1.0000
  C   C34       1.0  0.21315  0.78987  0.35669  1.0000
  C   C35       1.0  0.96534  0.59035  0.32061  1.0000
  C   C36       1.0  0.92311  0.60149  0.32348  1.0000
  C   C37       1.0  0.92920  0.59231  0.24472  1.0000
  C   C38       1.0  0.95014  0.58699  0.24304  1.0000
  C   C39       1.0  0.90096  0.60541  0.32695  1.0000
  C   C40       1.0  0.87577  0.58547  0.29791  1.0000
  C   C41       1.0  0.85348  0.58845  0.30707  1.0000
  C   C42       1.0  0.85564  0.61145  0.34571  1.0000
  C   C43       1.0  0.96501  0.47116  0.32931  1.0000
  C   C44       1.0  0.95355  0.45665  0.25049  1.0000
  C   C45       1.0  0.93233  0.43055  0.25522  1.0000
  C   C46       1.0  0.92177  0.41835  0.33863  1.0000
  C   C47       1.0  0.89911  0.39252  0.34362  1.0000
  C   C48       1.0  0.85378  0.34086  0.35654  1.0000
  C   C49       1.0  0.87432  0.34610  0.29605  1.0000
  C   C50       1.0  0.89668  0.37151  0.29003  1.0000
  H   H5        1.0  0.87342  0.33129  0.25732  1.0000
  H   H6        1.0  0.91150  0.37438  0.24730  1.0000
  H   H7        1.0  0.92390  0.42095  0.19678  1.0000
  H   H8        1.0  0.96011  0.46523  0.18917  1.0000
  H   H9        1.0  0.05873  0.49090  0.31028  1.0000
  H   H10       1.0  0.93365  0.49334  0.33640  1.0000
  H   H11       1.0  0.93376  0.53673  0.33501  1.0000
  H   H12       1.0  0.95378  0.58001  0.18541  1.0000
  H   H13       1.0  0.91833  0.58931  0.18774  1.0000
  H   H14       1.0  0.05959  0.66384  0.31297  1.0000
  H   H15       1.0  0.13469  0.63657  0.33638  1.0000
  H   H16       1.0  0.10770  0.66502  0.18919  1.0000
  H   H17       1.0  0.14357  0.70948  0.19678  1.0000
  H   H18       1.0  0.19282  0.79912  0.25825  1.0000
  H   H19       1.0  0.15528  0.75568  0.24809  1.0000
  H   H20       1.0  0.19525  0.56318  0.27223  1.0000
  H   H21       1.0  0.23357  0.55896  0.28763  1.0000
  H   H22       1.0  0.14998  0.54123  0.18740  1.0000
  H   H23       1.0  0.11418  0.55002  0.18509  1.0000
  H   H24       1.0  0.87321  0.56807  0.27309  1.0000
  H   H25       1.0  0.83544  0.57318  0.28833  1.0000
  C   C51       1.0  0.54534  0.52017  0.32707  1.0000
  C   C52       1.0  0.56573  0.51438  0.33352  1.0000
  C   C53       1.0  0.58932  0.53791  0.33457  1.0000
  C   C54       1.0  0.55778  0.67432  0.24544  1.0000
  C   C55       1.0  0.56277  0.70046  0.24710  1.0000
  C   C56       1.0  0.55733  0.77143  0.30928  1.0000
  C   C57       1.0  0.55489  0.74639  0.30004  1.0000
  C   C58       1.0  0.42740  0.54028  0.25261  1.0000
  C   C59       1.0  0.40120  0.53509  0.25703  1.0000
  C   C60       1.0  0.34209  0.51078  0.29164  1.0000
  C   C61       1.0  0.31647  0.50717  0.29739  1.0000
  C   C62       1.0  0.31089  0.52235  0.35726  1.0000
  C   C63       1.0  0.50848  0.43624  0.24740  1.0000
  C   C64       1.0  0.51379  0.46249  0.24573  1.0000
  C   C65       1.0  0.51535  0.38956  0.30059  1.0000
  C   C66       1.0  0.51238  0.36427  0.30976  1.0000
  C   C67       1.0  0.64412  0.59622  0.25264  1.0000
  C   C68       1.0  0.67021  0.60108  0.25708  1.0000
  C   C69       1.0  0.76003  0.61211  0.35718  1.0000
  C   C70       1.0  0.75471  0.62753  0.29690  1.0000
  C   C71       1.0  0.72929  0.62448  0.29126  1.0000
  H   H26       1.0  0.76947  0.64150  0.25799  1.0000
  H   H27       1.0  0.72636  0.63649  0.24861  1.0000
  H   H28       1.0  0.67979  0.60242  0.19853  1.0000
  H   H29       1.0  0.63549  0.59434  0.19141  1.0000
  H   H30       1.0  0.60747  0.53945  0.33888  1.0000
  H   H31       1.0  0.52079  0.47325  0.18810  1.0000
  H   H32       1.0  0.51148  0.42848  0.19041  1.0000
  H   H33       1.0  0.46177  0.46976  0.31288  1.0000
  H   H34       1.0  0.43591  0.54213  0.19137  1.0000
  H   H35       1.0  0.39143  0.53351  0.19846  1.0000
  H   H36       1.0  0.30176  0.49297  0.25889  1.0000
  H   H37       1.0  0.34522  0.49891  0.24940  1.0000
  H   H38       1.0  0.53764  0.73134  0.27483  1.0000
  H   H39       1.0  0.54183  0.77382  0.29026  1.0000
  H   H40       1.0  0.55962  0.70821  0.19004  1.0000
  H   H41       1.0  0.55081  0.66362  0.18781  1.0000
  H   H42       1.0  0.53274  0.40444  0.27571  1.0000
  H   H43       1.0  0.52765  0.36154  0.29095  1.0000
  C   C72       1.0  0.42663  0.98289  0.24659  1.0000
  C   C73       1.0  0.40048  0.96173  0.24776  1.0000
  C   C74       1.0  0.32941  0.88514  0.30851  1.0000
  C   C75       1.0  0.35447  0.90777  0.29976  1.0000
  C   C76       1.0  0.56055  0.98645  0.25514  1.0000
  C   C77       1.0  0.56577  0.96545  0.25962  1.0000
  C   C78       1.0  0.59004  0.93056  0.29433  1.0000
  C   C79       1.0  0.59361  0.90851  0.30005  1.0000
  C   C80       1.0  0.66445  0.17151  0.24796  1.0000
  C   C81       1.0  0.63819  0.15058  0.24683  1.0000
  C   C82       1.0  0.71122  0.22500  0.30001  1.0000
  C   C83       1.0  0.73652  0.24731  0.30865  1.0000
  C   C84       1.0  0.50459  0.14724  0.25499  1.0000
  C   C85       1.0  0.49969  0.16844  0.25948  1.0000
  C   C86       1.0  0.47329  0.22644  0.29947  1.0000
  C   C87       1.0  0.47633  0.20408  0.29380  1.0000
  H   H44       1.0  0.45931  0.22730  0.26058  1.0000
  H   H45       1.0  0.46432  0.18922  0.25115  1.0000
  H   H46       1.0  0.49839  0.17683  0.20096  1.0000
  H   H47       1.0  0.50646  0.14063  0.19373  1.0000
  H   H48       1.0  0.62735  0.14685  0.18937  1.0000
  H   H49       1.0  0.67211  0.18230  0.19077  1.0000
  H   H50       1.0  0.55868  0.99321  0.19389  1.0000
  H   H51       1.0  0.56730  0.95734  0.20107  1.0000
  H   H52       1.0  0.60781  0.90807  0.26156  1.0000
  H   H53       1.0  0.60190  0.94563  0.25202  1.0000
  H   H54       1.0  0.36956  0.90564  0.27479  1.0000
  H   H55       1.0  0.32703  0.86731  0.28930  1.0000
  H   H56       1.0  0.39282  0.95102  0.19053  1.0000
  H   H57       1.0  0.43741  0.98681  0.18912  1.0000
  H   H58       1.0  0.69628  0.22754  0.27553  1.0000
  H   H59       1.0  0.73921  0.26533  0.28987  1.0000
  N   N5        1.0  0.25281  0.52349  0.28630  1.0000
  N   N6        1.0  0.27508  0.52348  0.28835  1.0000
  N   N7        1.0  0.57729  0.82857  0.28894  1.0000
  N   N8        1.0  0.57729  0.85083  0.29101  1.0000
  N   N9        1.0  0.27231  0.84806  0.28691  1.0000
  N   N10       1.0  0.25005  0.82577  0.28848  1.0000
  N   N11       1.0  0.81719  0.60950  0.28614  1.0000
  N   N12       1.0  0.79520  0.61005  0.28823  1.0000
  N   N13       1.0  0.49133  0.30696  0.28877  1.0000
  N   N14       1.0  0.49078  0.28442  0.29084  1.0000
  N   N15       1.0  0.79378  0.28360  0.28668  1.0000
  N   N16       1.0  0.81632  0.30560  0.28830  1.0000
  C   C88       1.0  0.09195  0.61278  0.32665  1.0000
  C   C89       1.0  0.13006  0.52501  0.40036  1.0000
  C   C90       1.0  0.10916  0.53039  0.39923  1.0000
  C   C91       1.0  0.16643  0.50254  0.36340  1.0000
  C   C92       1.0  0.18900  0.49994  0.37151  1.0000
  C   C93       1.0  0.21412  0.52072  0.34598  1.0000
  C   C94       1.0  0.13451  0.69693  0.41723  1.0000
  C   C95       1.0  0.11341  0.67082  0.41281  1.0000
  C   C96       1.0  0.21184  0.76885  0.40752  1.0000
  C   C97       1.0  0.18981  0.74333  0.40150  1.0000
  C   C98       1.0  0.95952  0.59971  0.39924  1.0000
  C   C99       1.0  0.93883  0.60540  0.40037  1.0000
  C   C100      1.0  0.88099  0.63193  0.37072  1.0000
  C   C101      1.0  0.90324  0.62881  0.36273  1.0000
  C   C102      1.0  0.95506  0.45896  0.41281  1.0000
  C   C103      1.0  0.93376  0.43296  0.41724  1.0000
  C   C104      1.0  0.87804  0.38728  0.40196  1.0000
  C   C105      1.0  0.85569  0.36197  0.40789  1.0000
  H   H60       1.0  0.84077  0.35907  0.45023  1.0000
  H   H61       1.0  0.87853  0.40204  0.43990  1.0000
  H   H62       1.0  0.92694  0.42483  0.47894  1.0000
  H   H63       1.0  0.96285  0.46916  0.47091  1.0000
  H   H64       1.0  0.96994  0.60190  0.45677  1.0000
  H   H65       1.0  0.93463  0.61137  0.45922  1.0000
  H   H66       1.0  0.13458  0.59318  0.33503  1.0000
  H   H67       1.0  0.10585  0.66048  0.47091  1.0000
  H   H68       1.0  0.14142  0.70499  0.47892  1.0000
  H   H69       1.0  0.18975  0.72864  0.43907  1.0000
  H   H70       1.0  0.22697  0.77196  0.44956  1.0000
  H   H71       1.0  0.09888  0.52815  0.45690  1.0000
  H   H72       1.0  0.13455  0.51921  0.45934  1.0000
  H   H73       1.0  0.18703  0.48292  0.39819  1.0000
  H   H74       1.0  0.14867  0.48731  0.38438  1.0000
  H   H75       1.0  0.92118  0.64383  0.38332  1.0000
  H   H76       1.0  0.88338  0.64912  0.39697  1.0000
  C   C106      1.0  0.61467  0.63324  0.31824  1.0000
  C   C107      1.0  0.60115  0.64696  0.31656  1.0000
  C   C108      1.0  0.57416  0.62877  0.32189  1.0000
  N   N17       1.0  0.57234  0.60476  0.32536  1.0000
  C   C109      1.0  0.59625  0.60633  0.32369  1.0000
  C   C110      1.0  0.60253  0.58580  0.32772  1.0000
  C   C111      1.0  0.58369  0.55841  0.32918  1.0000
  N   N18       1.0  0.55711  0.54678  0.32463  1.0000
  C   C112      1.0  0.51791  0.50144  0.32382  1.0000
  C   C113      1.0  0.49756  0.50802  0.32187  1.0000
  N   N19       1.0  0.49939  0.53203  0.32534  1.0000
  C   C114      1.0  0.47548  0.53047  0.32370  1.0000
  C   C115      1.0  0.45706  0.50356  0.31831  1.0000
  C   C116      1.0  0.47057  0.48984  0.31659  1.0000
  C   C117      1.0  0.46920  0.55099  0.32766  1.0000
  C   C118      1.0  0.48804  0.57837  0.32917  1.0000
  N   N20       1.0  0.51461  0.59001  0.32473  1.0000
  C   C119      1.0  0.52639  0.61661  0.32718  1.0000
  C   C120      1.0  0.50601  0.62239  0.33359  1.0000
  C   C121      1.0  0.48241  0.59886  0.33451  1.0000
  C   C122      1.0  0.55382  0.63534  0.32391  1.0000
  C   C123      1.0  0.56124  0.66259  0.32320  1.0000
  C   C124      1.0  0.57174  0.71575  0.32599  1.0000
  C   C125      1.0  0.57582  0.70410  0.40303  1.0000
  C   C126      1.0  0.57047  0.67783  0.40192  1.0000
  C   C127      1.0  0.57515  0.74163  0.32956  1.0000
  C   C128      1.0  0.59829  0.76301  0.36599  1.0000
  C   C129      1.0  0.60087  0.78816  0.37413  1.0000
  C   C130      1.0  0.58007  0.79253  0.34858  1.0000
  C   C131      1.0  0.44206  0.54374  0.33158  1.0000
  C   C132      1.0  0.38902  0.53349  0.34026  1.0000
  C   C133      1.0  0.40381  0.53659  0.41905  1.0000
  C   C134      1.0  0.42993  0.54162  0.41492  1.0000
  C   C135      1.0  0.36298  0.52980  0.34490  1.0000
  C   C136      1.0  0.33185  0.54195  0.40829  1.0000
  C   C137      1.0  0.35739  0.54548  0.40263  1.0000
  C   C138      1.0  0.51046  0.47419  0.32333  1.0000
  C   C139      1.0  0.50110  0.45884  0.40196  1.0000
  C   C140      1.0  0.49542  0.43246  0.40308  1.0000
  C   C141      1.0  0.49931  0.42081  0.32617  1.0000
  C   C142      1.0  0.49540  0.39473  0.32963  1.0000
  C   C143      1.0  0.48938  0.34334  0.34837  1.0000
  C   C144      1.0  0.46889  0.34815  0.37337  1.0000
  C   C145      1.0  0.47201  0.37353  0.36544  1.0000
  C   C146      1.0  0.62967  0.59301  0.33162  1.0000
  C   C147      1.0  0.64193  0.59510  0.41498  1.0000
  C   C148      1.0  0.68250  0.60258  0.34034  1.0000
  C   C149      1.0  0.66794  0.59978  0.41912  1.0000
  C   C150      1.0  0.70835  0.60577  0.34502  1.0000
  C   C151      1.0  0.71366  0.58984  0.40319  1.0000
  C   C152      1.0  0.73899  0.59282  0.40874  1.0000
  H   H77       1.0  0.74194  0.58071  0.45093  1.0000
  H   H78       1.0  0.69895  0.57550  0.44125  1.0000
  H   H79       1.0  0.67612  0.60097  0.48072  1.0000
  H   H80       1.0  0.63177  0.59253  0.47319  1.0000
  H   H81       1.0  0.63475  0.64183  0.31579  1.0000
  H   H82       1.0  0.60994  0.66705  0.31290  1.0000
  H   H83       1.0  0.55599  0.58848  0.33215  1.0000
  H   H84       1.0  0.51576  0.54832  0.33173  1.0000
  H   H85       1.0  0.56408  0.49618  0.33757  1.0000
  H   H86       1.0  0.49894  0.46697  0.45953  1.0000
  H   H87       1.0  0.48947  0.42218  0.46194  1.0000
  H   H88       1.0  0.43697  0.49497  0.31587  1.0000
  H   H89       1.0  0.50766  0.64058  0.33752  1.0000
  H   H90       1.0  0.46426  0.59731  0.33870  1.0000
  H   H91       1.0  0.44023  0.54430  0.47313  1.0000
  H   H92       1.0  0.39571  0.53533  0.48064  1.0000
  H   H93       1.0  0.37203  0.56002  0.44037  1.0000
  H   H94       1.0  0.32869  0.55388  0.45019  1.0000
  H   H95       1.0  0.57268  0.66966  0.45962  1.0000
  H   H96       1.0  0.58163  0.71428  0.46198  1.0000
  H   H97       1.0  0.61788  0.80316  0.40083  1.0000
  H   H98       1.0  0.61352  0.76045  0.38699  1.0000
  H   H99       1.0  0.45699  0.37641  0.38606  1.0000
  H   H100      1.0  0.45171  0.33330  0.39969  1.0000
  C   C153      1.0  0.46757  0.08063  0.32060  1.0000
  C   C154      1.0  0.45386  0.05339  0.31876  1.0000
  C   C155      1.0  0.47205  0.04459  0.32396  1.0000
  N   N21       1.0  0.49606  0.06678  0.32759  1.0000
  C   C156      1.0  0.49449  0.08912  0.32598  1.0000
  C   C157      1.0  0.51501  0.11592  0.32996  1.0000
  C   C158      1.0  0.54240  0.12446  0.33133  1.0000
  N   N22       1.0  0.55404  0.10953  0.32675  1.0000
  C   C159      1.0  0.58065  0.12436  0.32906  1.0000
  C   C160      1.0  0.58644  0.15052  0.33548  1.0000
  C   C161      1.0  0.56291  0.15059  0.33662  1.0000
  C   C162      1.0  0.59937  0.11566  0.32567  1.0000
  C   C163      1.0  0.59279  0.08874  0.32377  1.0000
  N   N23       1.0  0.56878  0.06655  0.32752  1.0000
  C   C164      1.0  0.57036  0.04421  0.32593  1.0000
  C   C165      1.0  0.59726  0.05270  0.32024  1.0000
  C   C166      1.0  0.61097  0.07994  0.31832  1.0000
  C   C167      1.0  0.54984  0.01741  0.33012  1.0000
  C   C168      1.0  0.52246  0.00886  0.33151  1.0000
  N   N24       1.0  0.51082  0.02380  0.32695  1.0000
  C   C169      1.0  0.48421  0.00897  0.32919  1.0000
  C   C170      1.0  0.47844  0.98279  0.33561  1.0000
  C   C171      1.0  0.50196  0.98272  0.33677  1.0000
  C   C172      1.0  0.46548  0.01766  0.32574  1.0000
  C   C173      1.0  0.43824  0.99783  0.32460  1.0000
  C   C174      1.0  0.38508  0.95517  0.32641  1.0000
  C   C175      1.0  0.39662  0.97065  0.40372  1.0000
  C   C176      1.0  0.42290  0.99157  0.40309  1.0000
  C   C177      1.0  0.35919  0.93269  0.32945  1.0000
  C   C178      1.0  0.33775  0.93435  0.36553  1.0000
  C   C179      1.0  0.31259  0.91177  0.37310  1.0000
  C   C180      1.0  0.30825  0.88668  0.34737  1.0000
  C   C181      1.0  0.55709  0.99751  0.33409  1.0000
  C   C182      1.0  0.56734  0.95470  0.34288  1.0000
  C   C183      1.0  0.56424  0.96624  0.42163  1.0000
  C   C184      1.0  0.55921  0.98734  0.41746  1.0000
  C   C185      1.0  0.57102  0.93234  0.34757  1.0000
  C   C186      1.0  0.57844  0.88765  0.35996  1.0000
  C   C187      1.0  0.55885  0.88892  0.41101  1.0000
  C   C188      1.0  0.55534  0.91096  0.40536  1.0000
  C   C189      1.0  0.62662  0.13547  0.32469  1.0000
  C   C190      1.0  0.64209  0.14140  0.40305  1.0000
  C   C191      1.0  0.66847  0.16210  0.40365  1.0000
  C   C192      1.0  0.68000  0.17770  0.32645  1.0000
  C   C193      1.0  0.70609  0.19986  0.32935  1.0000
  C   C194      1.0  0.75751  0.24521  0.34702  1.0000
  C   C195      1.0  0.75274  0.21989  0.37228  1.0000
  C   C196      1.0  0.72734  0.19764  0.36484  1.0000
  C   C197      1.0  0.50780  0.13583  0.33392  1.0000
  C   C198      1.0  0.50573  0.14584  0.41732  1.0000
  C   C199      1.0  0.49822  0.17906  0.34278  1.0000
  C   C200      1.0  0.50104  0.16715  0.42152  1.0000
  C   C201      1.0  0.49504  0.20172  0.34751  1.0000
  C   C202      1.0  0.51098  0.22284  0.40570  1.0000
  C   C203      1.0  0.50800  0.24518  0.41128  1.0000
  C   C204      1.0  0.48872  0.24704  0.35973  1.0000
  H   H101      1.0  0.52012  0.26015  0.45348  1.0000
  H   H102      1.0  0.52532  0.22239  0.44372  1.0000
  H   H103      1.0  0.49987  0.17402  0.48314  1.0000
  H   H104      1.0  0.50830  0.13812  0.47550  1.0000
  H   H105      1.0  0.45898  0.09212  0.31817  1.0000
  H   H106      1.0  0.43377  0.04211  0.31501  1.0000
  H   H107      1.0  0.51235  0.06669  0.33391  1.0000
  H   H108      1.0  0.55252  0.06663  0.33448  1.0000
  H   H109      1.0  0.56137  0.16719  0.34098  1.0000
  H   H110      1.0  0.60464  0.16706  0.33945  1.0000
  H   H111      1.0  0.63406  0.13106  0.46079  1.0000
  H   H112      1.0  0.67885  0.16637  0.46231  1.0000
  H   H113      1.0  0.63104  0.09122  0.31435  1.0000
  H   H114      1.0  0.60585  0.04122  0.31772  1.0000
  H   H115      1.0  0.46024  0.96624  0.33939  1.0000
  H   H116      1.0  0.50352  0.96612  0.34099  1.0000
  H   H117      1.0  0.55654  0.99486  0.47564  1.0000
  H   H118      1.0  0.56550  0.95929  0.48324  1.0000
  H   H119      1.0  0.54080  0.91099  0.44305  1.0000
  H   H120      1.0  0.54691  0.87375  0.45292  1.0000
  H   H121      1.0  0.43097  0.00178  0.46094  1.0000
  H   H122      1.0  0.38635  0.96611  0.46248  1.0000
  H   H123      1.0  0.29755  0.91371  0.39953  1.0000
  H   H124      1.0  0.34029  0.95209  0.38664  1.0000
  H   H125      1.0  0.72450  0.17972  0.38563  1.0000
  H   H126      1.0  0.76763  0.21755  0.39836  1.0000
  C   C205      1.0  0.28514  0.51891  0.36369  1.0000
  C   C206      1.0  0.27046  0.51383  0.44413  1.0000
  C   C207      1.0  0.24631  0.51444  0.44228  1.0000
  C   C208      1.0  0.23742  0.51919  0.35920  1.0000
  C   C209      1.0  0.23270  0.51121  0.52385  1.0000
  C   C210      1.0  0.24171  0.50601  0.60429  1.0000
  C   C211      1.0  0.26458  0.50399  0.60501  1.0000
  C   C212      1.0  0.27886  0.50796  0.52578  1.0000
  H   H127      1.0  0.21617  0.51286  0.52651  1.0000
  H   H128      1.0  0.23154  0.50355  0.66229  1.0000
  H   H129      1.0  0.27101  0.49998  0.66345  1.0000
  H   H130      1.0  0.29541  0.50630  0.52882  1.0000
  C   C213      1.0  0.58183  0.86530  0.36637  1.0000
  C   C214      1.0  0.58694  0.85554  0.44679  1.0000
  C   C215      1.0  0.58634  0.83079  0.44492  1.0000
  C   C216      1.0  0.58158  0.81732  0.36184  1.0000
  C   C217      1.0  0.58957  0.82025  0.52648  1.0000
  C   C218      1.0  0.59478  0.83430  0.60692  1.0000
  C   C219      1.0  0.59680  0.85918  0.60765  1.0000
  C   C220      1.0  0.59282  0.86965  0.52844  1.0000
  H   H131      1.0  0.58791  0.80205  0.52914  1.0000
  H   H132      1.0  0.59724  0.82646  0.66492  1.0000
  H   H133      1.0  0.60081  0.86951  0.66610  1.0000
  H   H134      1.0  0.59448  0.88786  0.53150  1.0000
  C   C221      1.0  0.23548  0.81560  0.36358  1.0000
  C   C222      1.0  0.24509  0.83021  0.44424  1.0000
  C   C223      1.0  0.26983  0.85438  0.44290  1.0000
  C   C224      1.0  0.28343  0.86337  0.36006  1.0000
  C   C225      1.0  0.28023  0.86789  0.52470  1.0000
  C   C226      1.0  0.26605  0.85879  0.60485  1.0000
  C   C227      1.0  0.24119  0.83590  0.60507  1.0000
  C   C228      1.0  0.23085  0.82170  0.52561  1.0000
  H   H135      1.0  0.29840  0.88444  0.52773  1.0000
  H   H136      1.0  0.27378  0.86891  0.66303  1.0000
  H   H137      1.0  0.23076  0.82940  0.66331  1.0000
  H   H138      1.0  0.21264  0.80513  0.52829  1.0000
  C   C229      1.0  0.78556  0.61497  0.36348  1.0000
  C   C230      1.0  0.80039  0.61981  0.44378  1.0000
  C   C231      1.0  0.82421  0.61860  0.44191  1.0000
  C   C232      1.0  0.83267  0.61353  0.35892  1.0000
  C   C233      1.0  0.83793  0.62159  0.52339  1.0000
  C   C234      1.0  0.82936  0.62713  0.60371  1.0000
  C   C235      1.0  0.80683  0.62972  0.60443  1.0000
  C   C236      1.0  0.79243  0.62602  0.52530  1.0000
  H   H139      1.0  0.85423  0.61952  0.52606  1.0000
  H   H140      1.0  0.83962  0.62941  0.66165  1.0000
  H   H141      1.0  0.80072  0.63399  0.66278  1.0000
  H   H142      1.0  0.77614  0.62811  0.52833  1.0000
  C   C237      1.0  0.48586  0.26970  0.36607  1.0000
  C   C238      1.0  0.48102  0.27952  0.44639  1.0000
  C   C239      1.0  0.48224  0.30457  0.44455  1.0000
  C   C240      1.0  0.48731  0.31827  0.36157  1.0000
  C   C241      1.0  0.47924  0.31512  0.52603  1.0000
  C   C242      1.0  0.47370  0.30084  0.60634  1.0000
  C   C243      1.0  0.47109  0.27571  0.60703  1.0000
  C   C244      1.0  0.47481  0.26519  0.52790  1.0000
  H   H143      1.0  0.48132  0.33349  0.52873  1.0000
  H   H144      1.0  0.47142  0.30870  0.66428  1.0000
  H   H145      1.0  0.46683  0.26522  0.66537  1.0000
  H   H146      1.0  0.47272  0.24680  0.53091  1.0000
  C   C245      1.0  0.83112  0.31535  0.36330  1.0000
  C   C246      1.0  0.82145  0.30061  0.44382  1.0000
  C   C247      1.0  0.79642  0.27676  0.44246  1.0000
  C   C248      1.0  0.78258  0.26821  0.35974  1.0000
  C   C249      1.0  0.78599  0.26313  0.52418  1.0000
  C   C250      1.0  0.80039  0.27180  0.60424  1.0000
  C   C251      1.0  0.82551  0.29434  0.60443  1.0000
  C   C252      1.0  0.83590  0.30866  0.52508  1.0000
  H   H147      1.0  0.76763  0.24684  0.52723  1.0000
  H   H148      1.0  0.79262  0.26162  0.66235  1.0000
  H   H149      1.0  0.83609  0.30053  0.66260  1.0000
  H   H150      1.0  0.85429  0.32497  0.52774  1.0000
