data_image0
_chemical_formula_structural       C3H2C3H2C5H3CH3C5H3CH3C5H3CH3C2H2C2H2C2H2C18H11C24H15C24H15C24H15C2H2C2H2C2H2C5H3CH3C5H3CH3C5H3CH3
_chemical_formula_sum              "C144 H108"
_cell_length_a       45.7643
_cell_length_b       45.7643
_cell_length_c       14.94
_cell_angle_alpha    90
_cell_angle_beta     90
_cell_angle_gamma    120

_space_group_name_H-M_alt    "P 1"
_space_group_IT_number       1

loop_
  _space_group_symop_operation_xyz
  'x, y, z'

loop_
  _atom_site_type_symbol
  _atom_site_label
  _atom_site_symmetry_multiplicity
  _atom_site_fract_x
  _atom_site_fract_y
  _atom_site_fract_z
  _atom_site_occupancy
  C   C1        1.0  0.01478  0.03369  0.34275  1.0000
  C   C2        1.0  0.03313  0.01633  0.34801  1.0000
  C   C3        1.0  0.01442  0.98059  0.34968  1.0000
  H   H1        1.0  0.02774  0.05950  0.34164  1.0000
  H   H2        1.0  0.02724  0.96776  0.35725  1.0000
  C   C4        1.0  0.06943  0.03431  0.34840  1.0000
  C   C5        1.0  0.08826  0.06469  0.39732  1.0000
  C   C6        1.0  0.08784  0.02301  0.29658  1.0000
  H   H3        1.0  0.07625  0.07369  0.43678  1.0000
  H   H4        1.0  0.07550  0.00168  0.25839  1.0000
  C   C7        1.0  0.24948  0.12795  0.32621  1.0000
  C   C8        1.0  0.17754  0.09187  0.33126  1.0000
  C   C9        1.0  0.19459  0.11032  0.25257  1.0000
  C   C10       1.0  0.23085  0.12849  0.25000  1.0000
  C   C11       1.0  0.17497  0.11160  0.17374  1.0000
  H   H5        1.0  0.14779  0.09794  0.18279  1.0000
  H   H6        1.0  0.18041  0.10091  0.11499  1.0000
  H   H7        1.0  0.18196  0.13770  0.15953  1.0000
  C   C12       1.0  0.24880  0.14855  0.16838  1.0000
  H   H8        1.0  0.27616  0.16235  0.17366  1.0000
  H   H9        1.0  0.24137  0.16736  0.15482  1.0000
  H   H10       1.0  0.24233  0.13178  0.11074  1.0000
  C   C13       1.0  0.86759  0.12200  0.31540  1.0000
  C   C14       1.0  0.90425  0.08644  0.31679  1.0000
  C   C15       1.0  0.88558  0.08541  0.23888  1.0000
  C   C16       1.0  0.86716  0.10330  0.23817  1.0000
  C   C17       1.0  0.88420  0.06495  0.15886  1.0000
  H   H11       1.0  0.89798  0.05142  0.16647  1.0000
  H   H12       1.0  0.89472  0.08138  0.10071  1.0000
  H   H13       1.0  0.85814  0.04586  0.14473  1.0000
  C   C18       1.0  0.84678  0.10133  0.15740  1.0000
  H   H14       1.0  0.83280  0.11467  0.16400  1.0000
  H   H15       1.0  0.82809  0.07510  0.14340  1.0000
  H   H16       1.0  0.86336  0.11198  0.09953  1.0000
  C   C19       1.0  0.87060  0.74464  0.31967  1.0000
  C   C20       1.0  0.90386  0.81690  0.32093  1.0000
  C   C21       1.0  0.89711  0.79911  0.23783  1.0000
  C   C22       1.0  0.88214  0.76303  0.23761  1.0000
  C   C23       1.0  0.90409  0.81762  0.15058  1.0000
  H   H17       1.0  0.90972  0.84361  0.15736  1.0000
  H   H18       1.0  0.88200  0.80534  0.10714  1.0000
  H   H19       1.0  0.92541  0.81789  0.11713  1.0000
  C   C24       1.0  0.88021  0.74513  0.15184  1.0000
  H   H20       1.0  0.87389  0.71899  0.16083  1.0000
  H   H21       1.0  0.90461  0.75758  0.11809  1.0000
  H   H22       1.0  0.86128  0.74531  0.10781  1.0000
  C   C25       1.0  0.59367  0.16335  0.27654  1.0000
  C   C26       1.0  0.56298  0.16314  0.27718  1.0000
  H   H23       1.0  0.55937  0.17725  0.22989  1.0000
  H   H24       1.0  0.61113  0.17765  0.22890  1.0000
  C   C27       1.0  0.82982  0.42982  0.27682  1.0000
  C   C28       1.0  0.83008  0.39937  0.27722  1.0000
  H   H25       1.0  0.81603  0.38171  0.22972  1.0000
  H   H26       1.0  0.81555  0.43303  0.22918  1.0000
  C   C29       1.0  0.56293  0.40046  0.27613  1.0000
  C   C30       1.0  0.59337  0.43115  0.27689  1.0000
  H   H27       1.0  0.61113  0.43480  0.22965  1.0000
  H   H28       1.0  0.55981  0.38301  0.22850  1.0000
  C   C31       1.0  0.97909  0.01659  0.33834  1.0000
  C   C32       1.0  0.97872  0.96203  0.34340  1.0000
  C   C33       1.0  0.96182  0.98084  0.33742  1.0000
  C   C34       1.0  0.12377  0.08333  0.39305  1.0000
  C   C35       1.0  0.14173  0.07222  0.33935  1.0000
  C   C36       1.0  0.12334  0.04152  0.29229  1.0000
  C   C37       1.0  0.96092  0.03470  0.33410  1.0000
  C   C38       1.0  0.97198  0.06375  0.27969  1.0000
  C   C39       1.0  0.95373  0.08103  0.27482  1.0000
  C   C40       1.0  0.92356  0.06978  0.32392  1.0000
  C   C41       1.0  0.91272  0.04128  0.37978  1.0000
  C   C42       1.0  0.93104  0.02409  0.38460  1.0000
  C   C43       1.0  0.96040  0.92563  0.34072  1.0000
  C   C44       1.0  0.92804  0.90646  0.38035  1.0000
  C   C45       1.0  0.90954  0.87098  0.37422  1.0000
  C   C46       1.0  0.92270  0.85299  0.32863  1.0000
  C   C47       1.0  0.95550  0.87180  0.29207  1.0000
  C   C48       1.0  0.97368  0.90729  0.29684  1.0000
  H   H29       1.0  0.96230  0.10159  0.23369  1.0000
  H   H30       1.0  0.99309  0.07216  0.24083  1.0000
  H   H31       1.0  0.89105  0.03249  0.41653  1.0000
  H   H32       1.0  0.92233  0.00369  0.42633  1.0000
  H   H33       1.0  0.91746  0.91816  0.41481  1.0000
  H   H34       1.0  0.88601  0.85834  0.40238  1.0000
  H   H35       1.0  0.99657  0.91962  0.26542  1.0000
  H   H36       1.0  0.96620  0.85976  0.25963  1.0000
  H   H37       1.0  0.13563  0.03287  0.25260  1.0000
  H   H38       1.0  0.13639  0.10546  0.42799  1.0000
  H   H39       1.0  0.93620  0.96819  0.32896  1.0000
  C   C49       1.0  0.44826  0.25074  0.34653  1.0000
  C   C50       1.0  0.41272  0.23285  0.33915  1.0000
  C   C51       1.0  0.39396  0.19702  0.33809  1.0000
  C   C52       1.0  0.41209  0.17934  0.34194  1.0000
  C   C53       1.0  0.44766  0.19653  0.34896  1.0000
  C   C54       1.0  0.46521  0.23213  0.35055  1.0000
  C   C55       1.0  0.35775  0.17932  0.33576  1.0000
  C   C56       1.0  0.33911  0.19023  0.38795  1.0000
  C   C57       1.0  0.30361  0.17326  0.38525  1.0000
  C   C58       1.0  0.28543  0.14470  0.33002  1.0000
  C   C59       1.0  0.30369  0.13314  0.27919  1.0000
  C   C60       1.0  0.33922  0.15024  0.28185  1.0000
  C   C61       1.0  0.46737  0.28662  0.35138  1.0000
  C   C62       1.0  0.46588  0.30710  0.28266  1.0000
  C   C63       1.0  0.48864  0.34217  0.28151  1.0000
  C   C64       1.0  0.51298  0.35771  0.35002  1.0000
  C   C65       1.0  0.51375  0.33736  0.42007  1.0000
  C   C66       1.0  0.49122  0.30241  0.42088  1.0000
  C   C67       1.0  0.46640  0.17939  0.35498  1.0000
  C   C68       1.0  0.49026  0.18752  0.42447  1.0000
  C   C69       1.0  0.51319  0.17558  0.42299  1.0000
  C   C70       1.0  0.51279  0.15483  0.35238  1.0000
  C   C71       1.0  0.48834  0.14586  0.28409  1.0000
  C   C72       1.0  0.46525  0.15776  0.28573  1.0000
  H   H40       1.0  0.48808  0.35614  0.22875  1.0000
  H   H41       1.0  0.44969  0.29638  0.22989  1.0000
  H   H42       1.0  0.53170  0.34761  0.46923  1.0000
  H   H43       1.0  0.49326  0.28836  0.47124  1.0000
  H   H44       1.0  0.49226  0.20362  0.47477  1.0000
  H   H45       1.0  0.53123  0.18346  0.47197  1.0000
  H   H46       1.0  0.44914  0.15237  0.23279  1.0000
  H   H47       1.0  0.48806  0.13166  0.23082  1.0000
  H   H48       1.0  0.35150  0.14160  0.24212  1.0000
  H   H49       1.0  0.29122  0.11243  0.23875  1.0000
  H   H50       1.0  0.29112  0.18215  0.42335  1.0000
  H   H51       1.0  0.35122  0.21059  0.42965  1.0000
  H   H52       1.0  0.40036  0.24628  0.33574  1.0000
  H   H53       1.0  0.49106  0.24487  0.35344  1.0000
  H   H54       1.0  0.39923  0.15351  0.34357  1.0000
  C   C73       1.0  0.74326  0.19682  0.34538  1.0000
  C   C74       1.0  0.76125  0.17927  0.33653  1.0000
  C   C75       1.0  0.79710  0.19640  0.33404  1.0000
  C   C76       1.0  0.81466  0.23223  0.33829  1.0000
  C   C77       1.0  0.79744  0.25056  0.34698  1.0000
  C   C78       1.0  0.76184  0.23237  0.34961  1.0000
  C   C79       1.0  0.81503  0.17802  0.32979  1.0000
  C   C80       1.0  0.80459  0.14830  0.38091  1.0000
  C   C81       1.0  0.82196  0.13013  0.37684  1.0000
  C   C82       1.0  0.85047  0.14093  0.32105  1.0000
  C   C83       1.0  0.86148  0.17087  0.27106  1.0000
  C   C84       1.0  0.84401  0.18896  0.27520  1.0000
  C   C85       1.0  0.70733  0.18016  0.35085  1.0000
  C   C86       1.0  0.68662  0.15862  0.28174  1.0000
  C   C87       1.0  0.65163  0.14683  0.28077  1.0000
  C   C88       1.0  0.63630  0.15565  0.34983  1.0000
  C   C89       1.0  0.65688  0.17640  0.42012  1.0000
  C   C90       1.0  0.69175  0.18829  0.42081  1.0000
  C   C91       1.0  0.81441  0.28647  0.35342  1.0000
  C   C92       1.0  0.80621  0.30202  0.42330  1.0000
  C   C93       1.0  0.81793  0.33686  0.42234  1.0000
  C   C94       1.0  0.83851  0.35742  0.35179  1.0000
  C   C95       1.0  0.84752  0.34214  0.28302  1.0000
  C   C96       1.0  0.83585  0.30717  0.28416  1.0000
  H   H55       1.0  0.63753  0.13256  0.22781  1.0000
  H   H56       1.0  0.69716  0.15317  0.22852  1.0000
  H   H57       1.0  0.64686  0.18418  0.46969  1.0000
  H   H58       1.0  0.70595  0.20419  0.47132  1.0000
  H   H59       1.0  0.79023  0.28778  0.47363  1.0000
  H   H60       1.0  0.80994  0.34681  0.47159  1.0000
  H   H61       1.0  0.84133  0.29665  0.23097  1.0000
  H   H62       1.0  0.86163  0.35619  0.22981  1.0000
  H   H63       1.0  0.85239  0.21001  0.23611  1.0000
  H   H64       1.0  0.88209  0.17947  0.23010  1.0000
  H   H65       1.0  0.81337  0.10866  0.41437  1.0000
  H   H66       1.0  0.78432  0.13970  0.42305  1.0000
  H   H67       1.0  0.74785  0.15348  0.33287  1.0000
  H   H68       1.0  0.74906  0.24543  0.35332  1.0000
  H   H69       1.0  0.84048  0.24528  0.33897  1.0000
  C   C97       1.0  0.79570  0.54534  0.34739  1.0000
  C   C98       1.0  0.81335  0.58088  0.33902  1.0000
  C   C99       1.0  0.79634  0.59972  0.33771  1.0000
  C   C100      1.0  0.76052  0.58154  0.34241  1.0000
  C   C101      1.0  0.74212  0.54600  0.34998  1.0000
  C   C102      1.0  0.76016  0.52844  0.35181  1.0000
  C   C103      1.0  0.81477  0.63599  0.33372  1.0000
  C   C104      1.0  0.84523  0.65517  0.38206  1.0000
  C   C105      1.0  0.86346  0.69068  0.37783  1.0000
  C   C106      1.0  0.85194  0.70854  0.32504  1.0000
  C   C107      1.0  0.82111  0.68965  0.27856  1.0000
  C   C108      1.0  0.80310  0.65413  0.28216  1.0000
  C   C109      1.0  0.81236  0.52609  0.35225  1.0000
  C   C110      1.0  0.83409  0.52725  0.28328  1.0000
  C   C111      1.0  0.84613  0.50426  0.28208  1.0000
  C   C112      1.0  0.83728  0.47994  0.35068  1.0000
  C   C113      1.0  0.81633  0.47944  0.42087  1.0000
  C   C114      1.0  0.80421  0.50223  0.42181  1.0000
  C   C115      1.0  0.70623  0.52730  0.35572  1.0000
  C   C116      1.0  0.69037  0.50335  0.42496  1.0000
  C   C117      1.0  0.65548  0.48056  0.42331  1.0000
  C   C118      1.0  0.63524  0.48115  0.35264  1.0000
  C   C119      1.0  0.65086  0.50562  0.28446  1.0000
  C   C120      1.0  0.68587  0.52862  0.28639  1.0000
  H   H70       1.0  0.86059  0.50470  0.22927  1.0000
  H   H71       1.0  0.83968  0.54347  0.23053  1.0000
  H   H72       1.0  0.80852  0.46149  0.47007  1.0000
  H   H73       1.0  0.78820  0.50032  0.47226  1.0000
  H   H74       1.0  0.70439  0.50130  0.47540  1.0000
  H   H75       1.0  0.64522  0.46249  0.47217  1.0000
  H   H76       1.0  0.69667  0.54478  0.23360  1.0000
  H   H77       1.0  0.63701  0.50604  0.23120  1.0000
  H   H78       1.0  0.78149  0.64159  0.24510  1.0000
  H   H79       1.0  0.81172  0.70167  0.24047  1.0000
  H   H80       1.0  0.88554  0.70344  0.41302  1.0000
  H   H81       1.0  0.85437  0.64346  0.42222  1.0000
  H   H82       1.0  0.83912  0.59316  0.33487  1.0000
  H   H83       1.0  0.74701  0.50259  0.35497  1.0000
  H   H84       1.0  0.74751  0.59435  0.34400  1.0000
  C   C121      1.0  0.23191  0.11012  0.40350  1.0000
  C   C122      1.0  0.19661  0.09240  0.40598  1.0000
  H   H85       1.0  0.18491  0.07932  0.46301  1.0000
  H   H86       1.0  0.24473  0.10937  0.45888  1.0000
  C   C123      1.0  0.88568  0.12195  0.39180  1.0000
  C   C124      1.0  0.90363  0.10455  0.39249  1.0000
  H   H87       1.0  0.91674  0.10564  0.44919  1.0000
  H   H88       1.0  0.88638  0.13512  0.44802  1.0000
  C   C125      1.0  0.87629  0.76277  0.40034  1.0000
  C   C126      1.0  0.89322  0.79810  0.40111  1.0000
  H   H89       1.0  0.89773  0.81003  0.46179  1.0000
  H   H90       1.0  0.86831  0.75034  0.46023  1.0000
  C   C127      1.0  0.60187  0.14756  0.34533  1.0000
  C   C128      1.0  0.53930  0.14704  0.34647  1.0000
  C   C129      1.0  0.54597  0.12897  0.41383  1.0000
  C   C130      1.0  0.57747  0.12923  0.41325  1.0000
  C   C131      1.0  0.52026  0.10986  0.48487  1.0000
  H   H91       1.0  0.49668  0.11001  0.47669  1.0000
  H   H92       1.0  0.53048  0.12057  0.55048  1.0000
  H   H93       1.0  0.51358  0.08341  0.48411  1.0000
  C   C132      1.0  0.58466  0.11036  0.48372  1.0000
  H   H94       1.0  0.60853  0.11088  0.47477  1.0000
  H   H95       1.0  0.56514  0.08381  0.48311  1.0000
  H   H96       1.0  0.58520  0.12098  0.54951  1.0000
  C   C133      1.0  0.84554  0.45374  0.34581  1.0000
  C   C134      1.0  0.84612  0.39170  0.34647  1.0000
  C   C135      1.0  0.86411  0.41638  0.41407  1.0000
  C   C136      1.0  0.86380  0.44761  0.41376  1.0000
  C   C137      1.0  0.88322  0.40977  0.48507  1.0000
  H   H97       1.0  0.88314  0.38609  0.47674  1.0000
  H   H98       1.0  0.87246  0.40920  0.55068  1.0000
  H   H99       1.0  0.90965  0.42959  0.48445  1.0000
  C   C138      1.0  0.88255  0.47359  0.48449  1.0000
  H   H100      1.0  0.88199  0.49693  0.47568  1.0000
  H   H101      1.0  0.90912  0.48068  0.48408  1.0000
  H   H102      1.0  0.87187  0.46342  0.55016  1.0000
  C   C139      1.0  0.53899  0.39221  0.34504  1.0000
  C   C140      1.0  0.60094  0.45475  0.34641  1.0000
  C   C141      1.0  0.57619  0.44803  0.41379  1.0000
  C   C142      1.0  0.54497  0.41651  0.41312  1.0000
  C   C143      1.0  0.58276  0.47365  0.48502  1.0000
  H   H103      1.0  0.60646  0.49725  0.47690  1.0000
  H   H104      1.0  0.58327  0.46338  0.55054  1.0000
  H   H105      1.0  0.56295  0.48029  0.48443  1.0000
  C   C144      1.0  0.51892  0.40916  0.48372  1.0000
  H   H106      1.0  0.49560  0.38526  0.47462  1.0000
  H   H107      1.0  0.51182  0.42863  0.48346  1.0000
  H   H108      1.0  0.52902  0.40856  0.54942  1.0000
