data_image0
_chemical_formula_structural       C7H3NHC3H3NHC3H3NHC5H3C2O3C5H3C2O3C3NC2NHCH2NHC3NC2NHCH2NHC3NC2NHCH2NHC7H3NHC3H3NHC3H3NHC5H3C2O3C5H3C2O3C3NC2NHCH2NHC3NC2NHCH2NHC3NC2NHCH2NHC7H3NHC3H3NHC3H3NHC5H3C2O3C5H3C2O3C3NC2NHCH2NHC3NC2NHCH2NHC3NC2NHCH2NHC7H3NHC3H3NHC3H3NHC5H3C2O3C5H3C2O3C3NC2NHCH2NHC3NC2NHCH2NHC3NC2NHCH2NH
_chemical_formula_sum              "C180 H120 N48 O24"
_cell_length_a       43.889
_cell_length_b       43.889
_cell_length_c       15.0471
_cell_angle_alpha    90
_cell_angle_beta     90
_cell_angle_gamma    120

_space_group_name_H-M_alt    "P 1"
_space_group_IT_number       1

loop_
  _space_group_symop_operation_xyz
  'x, y, z'

loop_
  _atom_site_type_symbol
  _atom_site_label
  _atom_site_symmetry_multiplicity
  _atom_site_fract_x
  _atom_site_fract_y
  _atom_site_fract_z
  _atom_site_occupancy
  C   C1        1.0  0.18326  0.31301  0.28835  1.0000
  C   C2        1.0  0.20209  0.29482  0.30026  1.0000
  C   C3        1.0  0.29938  0.16701  0.35363  1.0000
  C   C4        1.0  0.26808  0.16894  0.35292  1.0000
  C   C5        1.0  0.20310  0.24087  0.32428  1.0000
  C   C6        1.0  0.20070  0.21260  0.27386  1.0000
  C   C7        1.0  0.22055  0.19664  0.29662  1.0000
  H   H1        1.0  0.22135  0.17965  0.25158  1.0000
  H   H2        1.0  0.18755  0.20603  0.21443  1.0000
  H   H3        1.0  0.22099  0.29019  0.00319  1.0000
  N   N1        1.0  0.18765  0.25918  0.29340  1.0000
  H   H4        1.0  0.16856  0.24743  0.25061  1.0000
  C   C8        1.0  0.25524  0.46146  0.32451  1.0000
  C   C9        1.0  0.28357  0.48731  0.27417  1.0000
  C   C10       1.0  0.29944  0.02312  0.29677  1.0000
  H   H5        1.0  0.31654  0.04091  0.25187  1.0000
  H   H6        1.0  0.29010  0.48069  0.21475  1.0000
  H   H7        1.0  0.20582  0.43007  0.00334  1.0000
  N   N2        1.0  0.23687  0.42771  0.29356  1.0000
  H   H8        1.0  0.24874  0.42036  0.25115  1.0000
  C   C11       1.0  0.03464  0.29299  0.32447  1.0000
  C   C12       1.0  0.00877  0.29544  0.27413  1.0000
  C   C13       1.0  0.47296  0.27559  0.29690  1.0000
  H   H9        1.0  0.45519  0.27485  0.25189  1.0000
  H   H10       1.0  0.01535  0.30860  0.21473  1.0000
  H   H11       1.0  0.06609  0.27495  0.00324  1.0000
  N   N3        1.0  0.06838  0.30839  0.29351  1.0000
  H   H12       1.0  0.07575  0.32753  0.25084  1.0000
  C   C14       1.0  0.18307  0.36945  0.28853  1.0000
  C   C15       1.0  0.14583  0.35002  0.28794  1.0000
  C   C16       1.0  0.12662  0.31282  0.28841  1.0000
  C   C17       1.0  0.14606  0.29502  0.28780  1.0000
  C   C18       1.0  0.20107  0.35025  0.28776  1.0000
  H   H13       1.0  0.13271  0.26823  0.29295  1.0000
  H   H14       1.0  0.22784  0.36368  0.29314  1.0000
  H   H15       1.0  0.13239  0.36337  0.29321  1.0000
  C   C19       1.0  0.20125  0.40647  0.30055  1.0000
  C   C20       1.0  0.08960  0.29398  0.30036  1.0000
  O   O1        1.0  0.23730  0.31412  0.31538  1.0000
  O   O2        1.0  0.18194  0.42236  0.31574  1.0000
  O   O3        1.0  0.07370  0.25877  0.31549  1.0000
  C   C21       1.0  0.32910  0.13161  0.35362  1.0000
  C   C22       1.0  0.36185  0.16321  0.35241  1.0000
  C   C23       1.0  0.36449  0.19672  0.35367  1.0000
  C   C24       1.0  0.33289  0.19787  0.35241  1.0000
  C   C25       1.0  0.29823  0.13426  0.35237  1.0000
  H   H16       1.0  0.33441  0.22187  0.34972  1.0000
  H   H17       1.0  0.27423  0.11177  0.34969  1.0000
  H   H18       1.0  0.38433  0.16170  0.34972  1.0000
  C   C26       1.0  0.32716  0.09837  0.35295  1.0000
  C   C27       1.0  0.39774  0.22801  0.35300  1.0000
  O   O4        1.0  0.23725  0.13986  0.33102  1.0000
  O   O5        1.0  0.35625  0.09660  0.33133  1.0000
  O   O6        1.0  0.39949  0.25887  0.33148  1.0000
  C   C28       1.0  0.24254  0.20732  0.37271  1.0000
  C   C29       1.0  0.24127  0.23245  0.42970  1.0000
  C   C30       1.0  0.22147  0.24875  0.40624  1.0000
  N   N4        1.0  0.21972  0.27103  0.46636  1.0000
  C   C31       1.0  0.23630  0.27932  0.54628  1.0000
  C   C32       1.0  0.25670  0.26382  0.56805  1.0000
  N   N5        1.0  0.25816  0.24111  0.50959  1.0000
  H   H19       1.0  0.26982  0.26891  0.62718  1.0000
  C   C33       1.0  0.23264  0.30359  0.60729  1.0000
  H   H20       1.0  0.21582  0.31277  0.57869  1.0000
  H   H21       1.0  0.25845  0.32638  0.62066  1.0000
  N   N6        1.0  0.26674  0.19693  0.38771  1.0000
  H   H22       1.0  0.28562  0.21135  0.42901  1.0000
  C   C34       1.0  0.28880  0.03446  0.37286  1.0000
  C   C35       1.0  0.26365  0.00808  0.42986  1.0000
  C   C36       1.0  0.24734  0.47197  0.40641  1.0000
  N   N7        1.0  0.22504  0.44795  0.46653  1.0000
  C   C37       1.0  0.21674  0.45625  0.54643  1.0000
  C   C38       1.0  0.23226  0.99215  0.56818  1.0000
  N   N8        1.0  0.25499  0.01632  0.50973  1.0000
  H   H23       1.0  0.22717  0.00020  0.62728  1.0000
  C   C39       1.0  0.19244  0.42834  0.60741  1.0000
  H   H24       1.0  0.18324  0.40233  0.57883  1.0000
  H   H25       1.0  0.16966  0.43138  0.62075  1.0000
  N   N9        1.0  0.29920  0.06906  0.38785  1.0000
  H   H26       1.0  0.28477  0.07352  0.42913  1.0000
  C   C40       1.0  0.46165  0.25357  0.37294  1.0000
  C   C41       1.0  0.48804  0.25481  0.42989  1.0000
  C   C42       1.0  0.02414  0.27459  0.40640  1.0000
  N   N10       1.0  0.04817  0.27630  0.46646  1.0000
  C   C43       1.0  0.03988  0.25970  0.54636  1.0000
  C   C44       1.0  0.50399  0.23933  0.56816  1.0000
  N   N11       1.0  0.47980  0.23789  0.50975  1.0000
  H   H27       1.0  0.49594  0.22618  0.62726  1.0000
  C   C45       1.0  0.06780  0.26330  0.60730  1.0000
  H   H28       1.0  0.09381  0.28011  0.57868  1.0000
  H   H29       1.0  0.06476  0.23748  0.62060  1.0000
  N   N12       1.0  0.42705  0.22937  0.38791  1.0000
  H   H30       1.0  0.42259  0.21047  0.42916  1.0000
  C   C46       1.0  0.18326  0.81301  0.28835  1.0000
  C   C47       1.0  0.20209  0.79482  0.30026  1.0000
  C   C48       1.0  0.29938  0.66700  0.35363  1.0000
  C   C49       1.0  0.26808  0.66894  0.35292  1.0000
  C   C50       1.0  0.20310  0.74087  0.32428  1.0000
  C   C51       1.0  0.20070  0.71259  0.27386  1.0000
  C   C52       1.0  0.22055  0.69664  0.29662  1.0000
  H   H31       1.0  0.22135  0.67965  0.25158  1.0000
  H   H32       1.0  0.18755  0.70603  0.21443  1.0000
  H   H33       1.0  0.22099  0.79020  0.00319  1.0000
  N   N13       1.0  0.18765  0.75918  0.29340  1.0000
  H   H34       1.0  0.16856  0.74743  0.25061  1.0000
  C   C53       1.0  0.25524  0.96146  0.32451  1.0000
  C   C54       1.0  0.28357  0.98731  0.27417  1.0000
  C   C55       1.0  0.29944  0.52312  0.29677  1.0000
  H   H35       1.0  0.31654  0.54091  0.25187  1.0000
  H   H36       1.0  0.29010  0.98069  0.21475  1.0000
  H   H37       1.0  0.20582  0.93007  0.00334  1.0000
  N   N14       1.0  0.23687  0.92771  0.29356  1.0000
  H   H38       1.0  0.24874  0.92036  0.25115  1.0000
  C   C56       1.0  0.03464  0.79299  0.32447  1.0000
  C   C57       1.0  0.00877  0.79544  0.27413  1.0000
  C   C58       1.0  0.47296  0.77559  0.29690  1.0000
  H   H39       1.0  0.45519  0.77485  0.25189  1.0000
  H   H40       1.0  0.01536  0.80860  0.21473  1.0000
  H   H41       1.0  0.06609  0.77495  0.00324  1.0000
  N   N15       1.0  0.06838  0.80839  0.29351  1.0000
  H   H42       1.0  0.07575  0.82752  0.25084  1.0000
  C   C59       1.0  0.18307  0.86945  0.28853  1.0000
  C   C60       1.0  0.14583  0.85002  0.28794  1.0000
  C   C61       1.0  0.12662  0.81282  0.28841  1.0000
  C   C62       1.0  0.14605  0.79502  0.28780  1.0000
  C   C63       1.0  0.20107  0.85025  0.28776  1.0000
  H   H43       1.0  0.13271  0.76823  0.29295  1.0000
  H   H44       1.0  0.22784  0.86368  0.29314  1.0000
  H   H45       1.0  0.13239  0.86337  0.29321  1.0000
  C   C64       1.0  0.20125  0.90647  0.30055  1.0000
  C   C65       1.0  0.08960  0.79398  0.30036  1.0000
  O   O7        1.0  0.23730  0.81412  0.31538  1.0000
  O   O8        1.0  0.18194  0.92236  0.31574  1.0000
  O   O9        1.0  0.07370  0.75877  0.31549  1.0000
  C   C66       1.0  0.32910  0.63161  0.35362  1.0000
  C   C67       1.0  0.36184  0.66321  0.35241  1.0000
  C   C68       1.0  0.36449  0.69672  0.35367  1.0000
  C   C69       1.0  0.33289  0.69787  0.35241  1.0000
  C   C70       1.0  0.29823  0.63426  0.35237  1.0000
  H   H46       1.0  0.33441  0.72187  0.34972  1.0000
  H   H47       1.0  0.27423  0.61177  0.34969  1.0000
  H   H48       1.0  0.38433  0.66169  0.34972  1.0000
  C   C71       1.0  0.32716  0.59837  0.35295  1.0000
  C   C72       1.0  0.39774  0.72801  0.35300  1.0000
  O   O10       1.0  0.23726  0.63987  0.33102  1.0000
  O   O11       1.0  0.35625  0.59660  0.33133  1.0000
  O   O12       1.0  0.39949  0.75887  0.33148  1.0000
  C   C73       1.0  0.24254  0.70732  0.37271  1.0000
  C   C74       1.0  0.24127  0.73245  0.42970  1.0000
  C   C75       1.0  0.22147  0.74875  0.40624  1.0000
  N   N16       1.0  0.21971  0.77102  0.46636  1.0000
  C   C76       1.0  0.23630  0.77932  0.54628  1.0000
  C   C77       1.0  0.25670  0.76382  0.56805  1.0000
  N   N17       1.0  0.25816  0.74111  0.50959  1.0000
  H   H49       1.0  0.26982  0.76891  0.62718  1.0000
  C   C78       1.0  0.23264  0.80359  0.60729  1.0000
  H   H50       1.0  0.21582  0.81277  0.57869  1.0000
  H   H51       1.0  0.25845  0.82638  0.62066  1.0000
  N   N18       1.0  0.26674  0.69693  0.38771  1.0000
  H   H52       1.0  0.28562  0.71135  0.42901  1.0000
  C   C79       1.0  0.28880  0.53446  0.37286  1.0000
  C   C80       1.0  0.26365  0.50808  0.42986  1.0000
  C   C81       1.0  0.24734  0.97197  0.40641  1.0000
  N   N19       1.0  0.22504  0.94795  0.46653  1.0000
  C   C82       1.0  0.21674  0.95625  0.54643  1.0000
  C   C83       1.0  0.23226  0.49215  0.56818  1.0000
  N   N20       1.0  0.25499  0.51632  0.50973  1.0000
  H   H53       1.0  0.22717  0.50020  0.62728  1.0000
  C   C84       1.0  0.19245  0.92834  0.60741  1.0000
  H   H54       1.0  0.18324  0.90233  0.57883  1.0000
  H   H55       1.0  0.16966  0.93138  0.62075  1.0000
  N   N21       1.0  0.29920  0.56906  0.38785  1.0000
  H   H56       1.0  0.28477  0.57352  0.42913  1.0000
  C   C85       1.0  0.46165  0.75357  0.37294  1.0000
  C   C86       1.0  0.48804  0.75481  0.42989  1.0000
  C   C87       1.0  0.02414  0.77459  0.40640  1.0000
  N   N22       1.0  0.04817  0.77630  0.46646  1.0000
  C   C88       1.0  0.03988  0.75970  0.54636  1.0000
  C   C89       1.0  0.50399  0.73933  0.56816  1.0000
  N   N23       1.0  0.47980  0.73789  0.50975  1.0000
  H   H57       1.0  0.49594  0.72618  0.62726  1.0000
  C   C90       1.0  0.06780  0.76330  0.60730  1.0000
  H   H58       1.0  0.09381  0.78011  0.57868  1.0000
  H   H59       1.0  0.06476  0.73748  0.62060  1.0000
  N   N24       1.0  0.42705  0.72937  0.38791  1.0000
  H   H60       1.0  0.42259  0.71047  0.42916  1.0000
  C   C91       1.0  0.68326  0.31301  0.28835  1.0000
  C   C92       1.0  0.70209  0.29482  0.30026  1.0000
  C   C93       1.0  0.79938  0.16701  0.35363  1.0000
  C   C94       1.0  0.76808  0.16894  0.35292  1.0000
  C   C95       1.0  0.70310  0.24087  0.32428  1.0000
  C   C96       1.0  0.70070  0.21260  0.27386  1.0000
  C   C97       1.0  0.72055  0.19664  0.29662  1.0000
  H   H61       1.0  0.72135  0.17965  0.25158  1.0000
  H   H62       1.0  0.68756  0.20603  0.21443  1.0000
  H   H63       1.0  0.72099  0.29019  0.00319  1.0000
  N   N25       1.0  0.68765  0.25918  0.29340  1.0000
  H   H64       1.0  0.66856  0.24743  0.25061  1.0000
  C   C98       1.0  0.75524  0.46146  0.32451  1.0000
  C   C99       1.0  0.78357  0.48731  0.27417  1.0000
  C   C100      1.0  0.79944  0.02312  0.29677  1.0000
  H   H65       1.0  0.81654  0.04091  0.25187  1.0000
  H   H66       1.0  0.79010  0.48069  0.21475  1.0000
  H   H67       1.0  0.70582  0.43007  0.00334  1.0000
  N   N26       1.0  0.73687  0.42771  0.29356  1.0000
  H   H68       1.0  0.74874  0.42036  0.25115  1.0000
  C   C101      1.0  0.53463  0.29299  0.32447  1.0000
  C   C102      1.0  0.50877  0.29544  0.27413  1.0000
  C   C103      1.0  0.97296  0.27559  0.29690  1.0000
  H   H69       1.0  0.95519  0.27485  0.25189  1.0000
  H   H70       1.0  0.51535  0.30860  0.21473  1.0000
  H   H71       1.0  0.56609  0.27495  0.00324  1.0000
  N   N27       1.0  0.56838  0.30839  0.29351  1.0000
  H   H72       1.0  0.57575  0.32753  0.25084  1.0000
  C   C104      1.0  0.68307  0.36945  0.28853  1.0000
  C   C105      1.0  0.64583  0.35002  0.28794  1.0000
  C   C106      1.0  0.62662  0.31282  0.28841  1.0000
  C   C107      1.0  0.64606  0.29502  0.28780  1.0000
  C   C108      1.0  0.70107  0.35025  0.28776  1.0000
  H   H73       1.0  0.63271  0.26823  0.29295  1.0000
  H   H74       1.0  0.72785  0.36368  0.29314  1.0000
  H   H75       1.0  0.63239  0.36337  0.29321  1.0000
  C   C109      1.0  0.70125  0.40647  0.30055  1.0000
  C   C110      1.0  0.58960  0.29398  0.30036  1.0000
  O   O13       1.0  0.73730  0.31412  0.31538  1.0000
  O   O14       1.0  0.68194  0.42236  0.31574  1.0000
  O   O15       1.0  0.57370  0.25877  0.31549  1.0000
  C   C111      1.0  0.82910  0.13161  0.35362  1.0000
  C   C112      1.0  0.86184  0.16321  0.35241  1.0000
  C   C113      1.0  0.86449  0.19672  0.35367  1.0000
  C   C114      1.0  0.83289  0.19787  0.35241  1.0000
  C   C115      1.0  0.79823  0.13426  0.35237  1.0000
  H   H76       1.0  0.83441  0.22187  0.34972  1.0000
  H   H77       1.0  0.77423  0.11177  0.34969  1.0000
  H   H78       1.0  0.88433  0.16170  0.34972  1.0000
  C   C116      1.0  0.82716  0.09837  0.35295  1.0000
  C   C117      1.0  0.89774  0.22801  0.35300  1.0000
  O   O16       1.0  0.73725  0.13986  0.33102  1.0000
  O   O17       1.0  0.85625  0.09660  0.33133  1.0000
  O   O18       1.0  0.89949  0.25887  0.33148  1.0000
  C   C118      1.0  0.74254  0.20732  0.37271  1.0000
  C   C119      1.0  0.74127  0.23245  0.42970  1.0000
  C   C120      1.0  0.72147  0.24875  0.40624  1.0000
  N   N28       1.0  0.71972  0.27103  0.46636  1.0000
  C   C121      1.0  0.73630  0.27932  0.54628  1.0000
  C   C122      1.0  0.75670  0.26382  0.56805  1.0000
  N   N29       1.0  0.75816  0.24111  0.50959  1.0000
  H   H79       1.0  0.76982  0.26891  0.62718  1.0000
  C   C123      1.0  0.73264  0.30359  0.60729  1.0000
  H   H80       1.0  0.71582  0.31277  0.57869  1.0000
  H   H81       1.0  0.75845  0.32638  0.62066  1.0000
  N   N30       1.0  0.76674  0.19693  0.38771  1.0000
  H   H82       1.0  0.78562  0.21135  0.42901  1.0000
  C   C124      1.0  0.78880  0.03446  0.37286  1.0000
  C   C125      1.0  0.76365  0.00808  0.42986  1.0000
  C   C126      1.0  0.74733  0.47197  0.40641  1.0000
  N   N31       1.0  0.72504  0.44795  0.46653  1.0000
  C   C127      1.0  0.71674  0.45625  0.54643  1.0000
  C   C128      1.0  0.73226  0.99215  0.56818  1.0000
  N   N32       1.0  0.75499  0.01632  0.50973  1.0000
  H   H83       1.0  0.72717  0.00020  0.62728  1.0000
  C   C129      1.0  0.69244  0.42834  0.60741  1.0000
  H   H84       1.0  0.68324  0.40233  0.57883  1.0000
  H   H85       1.0  0.66966  0.43138  0.62075  1.0000
  N   N33       1.0  0.79920  0.06906  0.38785  1.0000
  H   H86       1.0  0.78477  0.07352  0.42913  1.0000
  C   C130      1.0  0.96164  0.25357  0.37294  1.0000
  C   C131      1.0  0.98804  0.25481  0.42989  1.0000
  C   C132      1.0  0.52414  0.27459  0.40640  1.0000
  N   N34       1.0  0.54817  0.27630  0.46646  1.0000
  C   C133      1.0  0.53988  0.25970  0.54636  1.0000
  C   C134      1.0  0.00399  0.23933  0.56816  1.0000
  N   N35       1.0  0.97980  0.23789  0.50975  1.0000
  H   H87       1.0  0.99594  0.22618  0.62726  1.0000
  C   C135      1.0  0.56780  0.26330  0.60730  1.0000
  H   H88       1.0  0.59381  0.28011  0.57868  1.0000
  H   H89       1.0  0.56476  0.23748  0.62060  1.0000
  N   N36       1.0  0.92705  0.22937  0.38791  1.0000
  H   H90       1.0  0.92259  0.21047  0.42916  1.0000
  C   C136      1.0  0.68326  0.81301  0.28835  1.0000
  C   C137      1.0  0.70209  0.79482  0.30026  1.0000
  C   C138      1.0  0.79938  0.66700  0.35363  1.0000
  C   C139      1.0  0.76807  0.66894  0.35292  1.0000
  C   C140      1.0  0.70310  0.74087  0.32428  1.0000
  C   C141      1.0  0.70070  0.71259  0.27386  1.0000
  C   C142      1.0  0.72055  0.69664  0.29662  1.0000
  H   H91       1.0  0.72135  0.67965  0.25158  1.0000
  H   H92       1.0  0.68755  0.70603  0.21443  1.0000
  H   H93       1.0  0.72099  0.79020  0.00319  1.0000
  N   N37       1.0  0.68765  0.75918  0.29340  1.0000
  H   H94       1.0  0.66856  0.74743  0.25061  1.0000
  C   C143      1.0  0.75524  0.96146  0.32451  1.0000
  C   C144      1.0  0.78357  0.98731  0.27417  1.0000
  C   C145      1.0  0.79944  0.52312  0.29677  1.0000
  H   H95       1.0  0.81654  0.54091  0.25187  1.0000
  H   H96       1.0  0.79009  0.98069  0.21475  1.0000
  H   H97       1.0  0.70582  0.93007  0.00334  1.0000
  N   N38       1.0  0.73687  0.92771  0.29356  1.0000
  H   H98       1.0  0.74874  0.92036  0.25115  1.0000
  C   C146      1.0  0.53464  0.79299  0.32447  1.0000
  C   C147      1.0  0.50877  0.79544  0.27413  1.0000
  C   C148      1.0  0.97296  0.77559  0.29690  1.0000
  H   H99       1.0  0.95518  0.77485  0.25189  1.0000
  H   H100      1.0  0.51535  0.80860  0.21473  1.0000
  H   H101      1.0  0.56609  0.77495  0.00324  1.0000
  N   N39       1.0  0.56838  0.80839  0.29351  1.0000
  H   H102      1.0  0.57575  0.82752  0.25084  1.0000
  C   C149      1.0  0.68307  0.86945  0.28853  1.0000
  C   C150      1.0  0.64583  0.85002  0.28794  1.0000
  C   C151      1.0  0.62662  0.81282  0.28841  1.0000
  C   C152      1.0  0.64606  0.79502  0.28780  1.0000
  C   C153      1.0  0.70107  0.85025  0.28776  1.0000
  H   H103      1.0  0.63271  0.76823  0.29295  1.0000
  H   H104      1.0  0.72784  0.86368  0.29314  1.0000
  H   H105      1.0  0.63239  0.86337  0.29321  1.0000
  C   C154      1.0  0.70125  0.90647  0.30055  1.0000
  C   C155      1.0  0.58960  0.79398  0.30036  1.0000
  O   O19       1.0  0.73730  0.81412  0.31538  1.0000
  O   O20       1.0  0.68194  0.92236  0.31574  1.0000
  O   O21       1.0  0.57370  0.75877  0.31549  1.0000
  C   C156      1.0  0.82909  0.63161  0.35362  1.0000
  C   C157      1.0  0.86184  0.66321  0.35241  1.0000
  C   C158      1.0  0.86449  0.69672  0.35367  1.0000
  C   C159      1.0  0.83289  0.69787  0.35241  1.0000
  C   C160      1.0  0.79823  0.63426  0.35237  1.0000
  H   H106      1.0  0.83441  0.72187  0.34972  1.0000
  H   H107      1.0  0.77423  0.61177  0.34969  1.0000
  H   H108      1.0  0.88433  0.66169  0.34972  1.0000
  C   C161      1.0  0.82716  0.59837  0.35295  1.0000
  C   C162      1.0  0.89773  0.72801  0.35300  1.0000
  O   O22       1.0  0.73726  0.63987  0.33102  1.0000
  O   O23       1.0  0.85624  0.59660  0.33133  1.0000
  O   O24       1.0  0.89949  0.75887  0.33148  1.0000
  C   C163      1.0  0.74254  0.70732  0.37271  1.0000
  C   C164      1.0  0.74127  0.73245  0.42970  1.0000
  C   C165      1.0  0.72147  0.74875  0.40624  1.0000
  N   N40       1.0  0.71972  0.77102  0.46636  1.0000
  C   C166      1.0  0.73630  0.77932  0.54628  1.0000
  C   C167      1.0  0.75670  0.76382  0.56805  1.0000
  N   N41       1.0  0.75816  0.74111  0.50959  1.0000
  H   H109      1.0  0.76982  0.76891  0.62718  1.0000
  C   C168      1.0  0.73264  0.80359  0.60729  1.0000
  H   H110      1.0  0.71582  0.81277  0.57869  1.0000
  H   H111      1.0  0.75845  0.82638  0.62066  1.0000
  N   N42       1.0  0.76674  0.69693  0.38771  1.0000
  H   H112      1.0  0.78562  0.71135  0.42901  1.0000
  C   C169      1.0  0.78880  0.53446  0.37286  1.0000
  C   C170      1.0  0.76365  0.50808  0.42986  1.0000
  C   C171      1.0  0.74733  0.97197  0.40641  1.0000
  N   N43       1.0  0.72504  0.94795  0.46653  1.0000
  C   C172      1.0  0.71674  0.95625  0.54643  1.0000
  C   C173      1.0  0.73226  0.49215  0.56818  1.0000
  N   N44       1.0  0.75499  0.51632  0.50973  1.0000
  H   H113      1.0  0.72717  0.50020  0.62728  1.0000
  C   C174      1.0  0.69244  0.92834  0.60741  1.0000
  H   H114      1.0  0.68324  0.90233  0.57883  1.0000
  H   H115      1.0  0.66966  0.93138  0.62075  1.0000
  N   N45       1.0  0.79919  0.56906  0.38785  1.0000
  H   H116      1.0  0.78477  0.57352  0.42913  1.0000
  C   C175      1.0  0.96164  0.75357  0.37294  1.0000
  C   C176      1.0  0.98804  0.75481  0.42989  1.0000
  C   C177      1.0  0.52414  0.77459  0.40640  1.0000
  N   N46       1.0  0.54817  0.77630  0.46646  1.0000
  C   C178      1.0  0.53988  0.75970  0.54636  1.0000
  C   C179      1.0  0.00399  0.73933  0.56816  1.0000
  N   N47       1.0  0.97980  0.73789  0.50975  1.0000
  H   H117      1.0  0.99594  0.72618  0.62726  1.0000
  C   C180      1.0  0.56780  0.76330  0.60730  1.0000
  H   H118      1.0  0.59381  0.78011  0.57868  1.0000
  H   H119      1.0  0.56476  0.73748  0.62060  1.0000
  N   N48       1.0  0.92705  0.72937  0.38791  1.0000
  H   H120      1.0  0.92259  0.71047  0.42916  1.0000
