data_image0
_chemical_formula_structural       C5H2NCNCNHCHCHC2NC2HC2HN2CHCHC4HCHC4HC6H3C4HC6H3CNHCNCHNHCNHCNCHNHCNCHNHCNCHNHCNCNCNCNCNCNCNCNCNCNCNCNCNCNCNCNHCNCHNHCNCHNHC7H2C4HC6H3C4HC3HC4HC6H3C4HC6H3C4HC6H3
_chemical_formula_sum              "C126 H54 N36"
_cell_length_a       45.7083
_cell_length_b       45.7083
_cell_length_c       14.8356
_cell_angle_alpha    90
_cell_angle_beta     90
_cell_angle_gamma    120

_space_group_name_H-M_alt    "P 1"
_space_group_IT_number       1

loop_
  _space_group_symop_operation_xyz
  'x, y, z'

loop_
  _atom_site_type_symbol
  _atom_site_label
  _atom_site_symmetry_multiplicity
  _atom_site_fract_x
  _atom_site_fract_y
  _atom_site_fract_z
  _atom_site_occupancy
  C   C1        1.0  0.02621  0.51449  0.33822  1.0000
  C   C2        1.0  0.09757  0.55016  0.33975  1.0000
  C   C3        1.0  0.07992  0.54131  0.25704  1.0000
  C   C4        1.0  0.04418  0.52345  0.25517  1.0000
  C   C5        1.0  0.02606  0.51437  0.17323  1.0000
  H   H1        1.0  0.03858  0.52060  0.11282  1.0000
  H   H2        1.0  0.09322  0.54794  0.19773  1.0000
  N   N1        1.0  0.15053  0.60245  0.34242  1.0000
  C   C6        1.0  0.13320  0.56798  0.34171  1.0000
  N   N2        1.0  0.15054  0.55085  0.34222  1.0000
  C   C7        1.0  0.07844  0.54064  0.42004  1.0000
  N   N3        1.0  0.04413  0.52348  0.41657  1.0000
  H   H3        1.0  0.09005  0.54646  0.48163  1.0000
  C   C8        1.0  0.21985  0.54921  0.26676  1.0000
  H   H4        1.0  0.21163  0.55193  0.20487  1.0000
  C   C9        1.0  0.21983  0.67338  0.26709  1.0000
  H   H5        1.0  0.21166  0.66239  0.20522  1.0000
  C   C10       1.0  0.18489  0.61971  0.34334  1.0000
  C   C11       1.0  0.18490  0.56797  0.34320  1.0000
  N   N4        1.0  0.20152  0.60215  0.34427  1.0000
  C   C12       1.0  0.20506  0.55271  0.34655  1.0000
  C   C13       1.0  0.21959  0.55158  0.42962  1.0000
  H   H6        1.0  0.21078  0.55629  0.48827  1.0000
  C   C14       1.0  0.20503  0.65512  0.34694  1.0000
  C   C15       1.0  0.21955  0.67085  0.42993  1.0000
  H   H7        1.0  0.21078  0.65735  0.48860  1.0000
  N   N5        1.0  0.24764  0.54576  0.27092  1.0000
  N   N6        1.0  0.24764  0.70461  0.27116  1.0000
  C   C16       1.0  0.24830  0.54758  0.43230  1.0000
  H   H8        1.0  0.25505  0.55144  0.57432  1.0000
  C   C17       1.0  0.24829  0.70356  0.43251  1.0000
  H   H9        1.0  0.25502  0.70652  0.57453  1.0000
  C   C18       1.0  0.91904  0.46091  0.33977  1.0000
  C   C19       1.0  0.99040  0.49659  0.33823  1.0000
  C   C20       1.0  0.97242  0.48757  0.25518  1.0000
  C   C21       1.0  0.93668  0.46970  0.25706  1.0000
  H   H10       1.0  0.92338  0.46303  0.19775  1.0000
  C   C22       1.0  0.99054  0.49661  0.17323  1.0000
  H   H11       1.0  0.97801  0.49032  0.11282  1.0000
  C   C23       1.0  0.55295  0.46093  0.33985  1.0000
  C   C24       1.0  0.51726  0.49660  0.33828  1.0000
  C   C25       1.0  0.52624  0.48759  0.25524  1.0000
  C   C26       1.0  0.54412  0.46973  0.25713  1.0000
  H   H12       1.0  0.55076  0.46308  0.19783  1.0000
  C   C27       1.0  0.49935  0.51450  0.33826  1.0000
  C   C28       1.0  0.46366  0.55016  0.33975  1.0000
  C   C29       1.0  0.47247  0.54132  0.25705  1.0000
  C   C30       1.0  0.49035  0.52346  0.25520  1.0000
  C   C31       1.0  0.49941  0.51439  0.17327  1.0000
  C   C32       1.0  0.51717  0.49664  0.17329  1.0000
  H   H13       1.0  0.49313  0.52064  0.11284  1.0000
  H   H14       1.0  0.52343  0.49037  0.11288  1.0000
  H   H15       1.0  0.46581  0.54796  0.19773  1.0000
  C   C33       1.0  0.55291  0.09482  0.33977  1.0000
  C   C34       1.0  0.51727  0.02345  0.33821  1.0000
  C   C35       1.0  0.52621  0.04144  0.25517  1.0000
  C   C36       1.0  0.54406  0.07718  0.25706  1.0000
  H   H16       1.0  0.55068  0.09047  0.19775  1.0000
  C   C37       1.0  0.49938  0.98765  0.33821  1.0000
  C   C38       1.0  0.46371  0.91629  0.33972  1.0000
  C   C39       1.0  0.47249  0.93393  0.25701  1.0000
  C   C40       1.0  0.49035  0.96967  0.25515  1.0000
  C   C41       1.0  0.49937  0.98780  0.17321  1.0000
  C   C42       1.0  0.51712  0.02332  0.17323  1.0000
  H   H17       1.0  0.49309  0.97528  0.11280  1.0000
  H   H18       1.0  0.52335  0.03585  0.11281  1.0000
  H   H19       1.0  0.46581  0.92064  0.19771  1.0000
  C   C43       1.0  0.34042  0.54914  0.26673  1.0000
  N   N7        1.0  0.30919  0.54573  0.27093  1.0000
  H   H20       1.0  0.35139  0.55194  0.20485  1.0000
  C   C44       1.0  0.46454  0.67335  0.26716  1.0000
  N   N8        1.0  0.46792  0.70456  0.27133  1.0000
  C   C45       1.0  0.46456  0.79397  0.26724  1.0000
  H   H21       1.0  0.46158  0.66232  0.20530  1.0000
  N   N9        1.0  0.46793  0.76613  0.27137  1.0000
  H   H22       1.0  0.46162  0.80208  0.20540  1.0000
  C   C46       1.0  0.34046  0.79395  0.26681  1.0000
  N   N10       1.0  0.30922  0.76616  0.27100  1.0000
  H   H23       1.0  0.35141  0.80213  0.20490  1.0000
  C   C47       1.0  0.79682  0.46186  0.26724  1.0000
  N   N11       1.0  0.76897  0.46524  0.27137  1.0000
  C   C48       1.0  0.67621  0.46188  0.26702  1.0000
  H   H24       1.0  0.80493  0.45894  0.20541  1.0000
  N   N12       1.0  0.70742  0.46525  0.27124  1.0000
  H   H25       1.0  0.66521  0.45899  0.20515  1.0000
  C   C49       1.0  0.55200  0.33769  0.26687  1.0000
  N   N13       1.0  0.54855  0.30644  0.27104  1.0000
  C   C50       1.0  0.55191  0.21704  0.26688  1.0000
  H   H26       1.0  0.55473  0.34864  0.20497  1.0000
  N   N14       1.0  0.54851  0.24487  0.27107  1.0000
  H   H27       1.0  0.55471  0.20887  0.20500  1.0000
  C   C51       1.0  0.67610  0.21706  0.26724  1.0000
  N   N15       1.0  0.70732  0.24490  0.27135  1.0000
  C   C52       1.0  0.79673  0.33766  0.26703  1.0000
  H   H28       1.0  0.66507  0.20896  0.20539  1.0000
  N   N16       1.0  0.76889  0.30645  0.27123  1.0000
  H   H29       1.0  0.80484  0.34867  0.20517  1.0000
  C   C53       1.0  0.39412  0.56796  0.34311  1.0000
  N   N17       1.0  0.41137  0.55084  0.34216  1.0000
  C   C54       1.0  0.44584  0.56798  0.34168  1.0000
  N   N18       1.0  0.46297  0.60245  0.34243  1.0000
  C   C55       1.0  0.44586  0.61969  0.34334  1.0000
  N   N19       1.0  0.41167  0.60214  0.34423  1.0000
  C   C56       1.0  0.44590  0.82895  0.34349  1.0000
  N   N20       1.0  0.46303  0.86331  0.34249  1.0000
  C   C57       1.0  0.44589  0.88065  0.34167  1.0000
  N   N21       1.0  0.41142  0.86332  0.34214  1.0000
  C   C58       1.0  0.39417  0.82896  0.34311  1.0000
  N   N22       1.0  0.41172  0.81233  0.34431  1.0000
  C   C59       1.0  0.83171  0.39136  0.34342  1.0000
  N   N23       1.0  0.86608  0.40861  0.34233  1.0000
  C   C60       1.0  0.88340  0.44309  0.34175  1.0000
  N   N24       1.0  0.86607  0.46022  0.34252  1.0000
  C   C61       1.0  0.83170  0.44310  0.34360  1.0000
  N   N25       1.0  0.81508  0.40891  0.34454  1.0000
  C   C62       1.0  0.62249  0.44314  0.34334  1.0000
  N   N26       1.0  0.60524  0.46025  0.34243  1.0000
  C   C63       1.0  0.57077  0.44311  0.34181  1.0000
  N   N27       1.0  0.55364  0.40864  0.34237  1.0000
  C   C64       1.0  0.57076  0.39140  0.34330  1.0000
  N   N28       1.0  0.60494  0.40896  0.34429  1.0000
  C   C65       1.0  0.57071  0.18215  0.34326  1.0000
  N   N29       1.0  0.55360  0.14779  0.34226  1.0000
  C   C66       1.0  0.57073  0.13045  0.34174  1.0000
  N   N30       1.0  0.60520  0.14778  0.34250  1.0000
  C   C67       1.0  0.62245  0.18214  0.34347  1.0000
  N   N31       1.0  0.60490  0.19877  0.34441  1.0000
  C   C68       1.0  0.93816  0.47050  0.42005  1.0000
  N   N32       1.0  0.97248  0.48766  0.41657  1.0000
  H   H30       1.0  0.92656  0.46472  0.48165  1.0000
  C   C69       1.0  0.54340  0.47050  0.42013  1.0000
  N   N33       1.0  0.52623  0.48765  0.41663  1.0000
  C   C70       1.0  0.47324  0.54063  0.42005  1.0000
  H   H31       1.0  0.54921  0.46471  0.48173  1.0000
  N   N34       1.0  0.49040  0.52347  0.41659  1.0000
  H   H32       1.0  0.46744  0.54644  0.48163  1.0000
  C   C71       1.0  0.54341  0.07569  0.42005  1.0000
  N   N35       1.0  0.52626  0.04137  0.41657  1.0000
  C   C72       1.0  0.47332  0.93541  0.42001  1.0000
  H   H33       1.0  0.54924  0.08729  0.48165  1.0000
  N   N36       1.0  0.49046  0.96972  0.41654  1.0000
  H   H34       1.0  0.46755  0.92380  0.48160  1.0000
  C   C73       1.0  0.26250  0.54487  0.34957  1.0000
  C   C74       1.0  0.29345  0.54486  0.34957  1.0000
  C   C75       1.0  0.35869  0.55268  0.34657  1.0000
  C   C76       1.0  0.34305  0.55152  0.42968  1.0000
  C   C77       1.0  0.31034  0.54756  0.43231  1.0000
  C   C78       1.0  0.29536  0.54890  0.51426  1.0000
  C   C79       1.0  0.26460  0.54888  0.51426  1.0000
  H   H35       1.0  0.30746  0.55142  0.57432  1.0000
  H   H36       1.0  0.35659  0.55629  0.48829  1.0000
  C   C80       1.0  0.46113  0.65511  0.34704  1.0000
  C   C81       1.0  0.46893  0.72036  0.34998  1.0000
  C   C82       1.0  0.46640  0.70354  0.43272  1.0000
  C   C83       1.0  0.46245  0.67085  0.43009  1.0000
  H   H37       1.0  0.45777  0.65733  0.48872  1.0000
  C   C84       1.0  0.46894  0.75133  0.34998  1.0000
  C   C85       1.0  0.46117  0.80880  0.34713  1.0000
  C   C86       1.0  0.46244  0.79434  0.43016  1.0000
  C   C87       1.0  0.46642  0.76560  0.43276  1.0000
  C   C88       1.0  0.46521  0.74935  0.51472  1.0000
  C   C89       1.0  0.46521  0.71859  0.51470  1.0000
  H   H38       1.0  0.46285  0.75900  0.57483  1.0000
  H   H39       1.0  0.46285  0.70657  0.57480  1.0000
  H   H40       1.0  0.45782  0.80320  0.48882  1.0000
  C   C90       1.0  0.35875  0.80882  0.34656  1.0000
  C   C91       1.0  0.29347  0.75136  0.34967  1.0000
  C   C92       1.0  0.31035  0.76560  0.43237  1.0000
  C   C93       1.0  0.34307  0.79431  0.42962  1.0000
  H   H41       1.0  0.35657  0.80316  0.48827  1.0000
  C   C94       1.0  0.26250  0.72040  0.34975  1.0000
  C   C95       1.0  0.26461  0.71858  0.51444  1.0000
  C   C96       1.0  0.29535  0.74935  0.51437  1.0000
  H   H42       1.0  0.30745  0.75893  0.57442  1.0000
  C   C97       1.0  0.81155  0.45837  0.34717  1.0000
  C   C98       1.0  0.75413  0.46617  0.34998  1.0000
  C   C99       1.0  0.76835  0.46357  0.43276  1.0000
  C   C100      1.0  0.79710  0.45961  0.43022  1.0000
  H   H43       1.0  0.80590  0.45489  0.48885  1.0000
  C   C101      1.0  0.72317  0.46618  0.34990  1.0000
  C   C102      1.0  0.65791  0.45841  0.34680  1.0000
  C   C103      1.0  0.67360  0.45960  0.42987  1.0000
  C   C104      1.0  0.70631  0.46358  0.43260  1.0000
  C   C105      1.0  0.72130  0.46230  0.51460  1.0000
  C   C106      1.0  0.75205  0.46231  0.51468  1.0000
  H   H44       1.0  0.70924  0.45989  0.57467  1.0000
  H   H45       1.0  0.76166  0.45989  0.57480  1.0000
  H   H46       1.0  0.66008  0.45494  0.48849  1.0000
  C   C107      1.0  0.55549  0.35597  0.34665  1.0000
  C   C108      1.0  0.54765  0.29070  0.34969  1.0000
  C   C109      1.0  0.55034  0.30759  0.43242  1.0000
  C   C110      1.0  0.55436  0.34032  0.42973  1.0000
  H   H47       1.0  0.55905  0.35383  0.48837  1.0000
  C   C111      1.0  0.54763  0.25973  0.34971  1.0000
  C   C112      1.0  0.55544  0.20231  0.34673  1.0000
  C   C113      1.0  0.55428  0.21679  0.42983  1.0000
  C   C114      1.0  0.55032  0.24553  0.43245  1.0000
  C   C115      1.0  0.55166  0.26186  0.51439  1.0000
  C   C116      1.0  0.55164  0.29260  0.51439  1.0000
  H   H48       1.0  0.55416  0.25228  0.57446  1.0000
  H   H49       1.0  0.55420  0.30471  0.57444  1.0000
  H   H50       1.0  0.55904  0.20802  0.48845  1.0000
  C   C117      1.0  0.65787  0.20229  0.34715  1.0000
  C   C118      1.0  0.72312  0.25973  0.34996  1.0000
  C   C119      1.0  0.70630  0.24549  0.43273  1.0000
  C   C120      1.0  0.67360  0.21674  0.43017  1.0000
  H   H51       1.0  0.66009  0.20794  0.48881  1.0000
  C   C121      1.0  0.75409  0.29068  0.34988  1.0000
  C   C122      1.0  0.81158  0.35595  0.34681  1.0000
  C   C123      1.0  0.79708  0.34024  0.42987  1.0000
  C   C124      1.0  0.76836  0.30753  0.43260  1.0000
  C   C125      1.0  0.75211  0.29253  0.51459  1.0000
  C   C126      1.0  0.72135  0.26177  0.51466  1.0000
  H   H52       1.0  0.76175  0.30457  0.57467  1.0000
  H   H53       1.0  0.70933  0.25215  0.57478  1.0000
  H   H54       1.0  0.80594  0.35374  0.48852  1.0000
