data_image0
_chemical_formula_structural       C3HCNCH3CH2C3NCH2C4NC2NCHCH2C4NC2NCHCH2C2H2CH2CH2C2H2CH2CH2C2H2CH2CH2C2H2CH4C2H2CH4C2H2CH4C5HC6H3C6H3C6H3C6H3C6H3CH2C2H5C2H5C4NC2NH2C4NC2NH2C4NC2NH2C4NC2NHCHC4NC2NHCHC4NC2NHCH
_chemical_formula_sum              "C126 H90 N18"
_cell_length_a       30.8467
_cell_length_b       30.8467
_cell_length_c       14.8807
_cell_angle_alpha    90
_cell_angle_beta     90
_cell_angle_gamma    120

_space_group_name_H-M_alt    "P 1"
_space_group_IT_number       1

loop_
  _space_group_symop_operation_xyz
  'x, y, z'

loop_
  _atom_site_type_symbol
  _atom_site_label
  _atom_site_symmetry_multiplicity
  _atom_site_fract_x
  _atom_site_fract_y
  _atom_site_fract_z
  _atom_site_occupancy
  C   C1        1.0  0.03379  0.51789  0.25601  1.0000
  C   C2        1.0  0.03596  0.51921  0.09480  1.0000
  C   C3        1.0  0.03116  0.51602  0.41796  1.0000
  H   H1        1.0  0.04855  0.52443  0.47907  1.0000
  C   C4        1.0  0.06027  0.53091  0.33849  1.0000
  N   N1        1.0  0.05860  0.53033  0.17647  1.0000
  C   C5        1.0  0.06845  0.53522  0.01448  1.0000
  H   H2        1.0  0.06149  0.56073  0.64103  1.0000
  H   H3        1.0  0.06077  0.50258  0.64089  1.0000
  H   H4        1.0  0.10804  0.55462  0.03284  1.0000
  C   C6        1.0  0.11416  0.55784  0.34200  1.0000
  H   H5        1.0  0.12256  0.63048  0.34148  1.0000
  H   H6        1.0  0.12245  0.49353  0.34181  1.0000
  C   C7        1.0  0.95147  0.47660  0.33312  1.0000
  C   C8        1.0  0.98038  0.49127  0.25348  1.0000
  C   C9        1.0  0.98280  0.49284  0.09270  1.0000
  N   N2        1.0  0.95780  0.48021  0.17198  1.0000
  C   C10       1.0  0.95145  0.47760  0.01139  1.0000
  H   H7        1.0  0.92720  0.49396  0.01178  1.0000
  H   H8        1.0  0.92828  0.43688  0.00917  1.0000
  C   C11       1.0  0.53338  0.47670  0.33313  1.0000
  C   C12       1.0  0.51866  0.49090  0.25350  1.0000
  C   C13       1.0  0.49203  0.51768  0.25605  1.0000
  C   C14       1.0  0.47904  0.53117  0.33853  1.0000
  N   N3        1.0  0.47957  0.53005  0.17651  1.0000
  C   C15       1.0  0.49067  0.51852  0.09484  1.0000
  C   C16       1.0  0.51702  0.49171  0.09272  1.0000
  N   N4        1.0  0.52968  0.47937  0.17198  1.0000
  C   C17       1.0  0.47467  0.53502  0.01452  1.0000
  H   H9        1.0  0.45532  0.55525  0.03290  1.0000
  C   C18       1.0  0.53220  0.47555  0.01139  1.0000
  H   H10       1.0  0.51594  0.43495  0.01198  1.0000
  H   H11       1.0  0.57292  0.49320  0.00897  1.0000
  C   C19       1.0  0.53368  0.05840  0.33341  1.0000
  C   C20       1.0  0.51839  0.02952  0.25374  1.0000
  C   C21       1.0  0.49162  0.97611  0.25623  1.0000
  C   C22       1.0  0.47905  0.94960  0.33869  1.0000
  N   N5        1.0  0.47877  0.95131  0.17667  1.0000
  C   C23       1.0  0.48954  0.97396  0.09502  1.0000
  C   C24       1.0  0.51600  0.02712  0.09292  1.0000
  N   N6        1.0  0.52911  0.05210  0.17222  1.0000
  C   C25       1.0  0.47331  0.94148  0.01469  1.0000
  H   H12       1.0  0.45375  0.90188  0.03304  1.0000
  C   C26       1.0  0.53071  0.05846  0.01159  1.0000
  H   H13       1.0  0.57146  0.08084  0.00756  1.0000
  H   H14       1.0  0.51527  0.08349  0.01376  1.0000
  C   C27       1.0  0.29320  0.53233  0.26781  1.0000
  C   C28       1.0  0.24707  0.53169  0.26776  1.0000
  H   H15       1.0  0.23299  0.53481  0.20759  1.0000
  H   H16       1.0  0.31073  0.53629  0.20761  1.0000
  C   C29       1.0  0.32778  0.54819  0.00538  1.0000
  H   H17       1.0  0.30387  0.51631  0.04804  1.0000
  H   H18       1.0  0.33906  0.58288  0.04195  1.0000
  C   C30       1.0  0.22909  0.55252  0.00264  1.0000
  H   H19       1.0  0.25345  0.56528  0.06111  1.0000
  H   H20       1.0  0.19591  0.51668  0.01803  1.0000
  C   C31       1.0  0.47710  0.76211  0.26718  1.0000
  C   C32       1.0  0.47790  0.71671  0.26780  1.0000
  H   H21       1.0  0.47452  0.69915  0.20794  1.0000
  H   H22       1.0  0.47289  0.77535  0.20680  1.0000
  C   C33       1.0  0.46270  0.78272  0.00483  1.0000
  H   H23       1.0  0.49458  0.79068  0.04750  1.0000
  H   H24       1.0  0.42801  0.75951  0.04155  1.0000
  C   C34       1.0  0.45799  0.67953  0.00310  1.0000
  H   H25       1.0  0.44537  0.69140  0.06138  1.0000
  H   H26       1.0  0.49378  0.68209  0.01853  1.0000
  C   C35       1.0  0.24728  0.71660  0.26713  1.0000
  C   C36       1.0  0.29278  0.76271  0.26690  1.0000
  H   H27       1.0  0.30998  0.77666  0.20669  1.0000
  H   H28       1.0  0.23371  0.69896  0.20702  1.0000
  C   C37       1.0  0.22858  0.68277  0.00491  1.0000
  H   H29       1.0  0.22078  0.70683  0.04749  1.0000
  H   H30       1.0  0.25192  0.67141  0.04150  1.0000
  C   C38       1.0  0.33165  0.78131  0.00176  1.0000
  H   H31       1.0  0.32034  0.75686  0.06009  1.0000
  H   H32       1.0  0.32866  0.81427  0.01749  1.0000
  C   C39       1.0  0.71935  0.47615  0.26297  1.0000
  C   C40       1.0  0.76554  0.47691  0.26324  1.0000
  H   H33       1.0  0.77994  0.47418  0.20312  1.0000
  H   H34       1.0  0.70214  0.47264  0.20258  1.0000
  C   C41       1.0  0.68397  0.45982  0.00069  1.0000
  H   H35       1.0  0.70801  0.49183  0.04298  1.0000
  H   H36       1.0  0.67263  0.42524  0.03770  1.0000
  H   H37       1.0  0.75802  0.44231  0.05683  1.0000
  H   H38       1.0  0.81533  0.49159  0.01426  1.0000
  C   C42       1.0  0.53368  0.24471  0.26323  1.0000
  C   C43       1.0  0.53304  0.29021  0.26307  1.0000
  H   H39       1.0  0.53566  0.30713  0.20275  1.0000
  H   H40       1.0  0.53711  0.23086  0.20296  1.0000
  C   C44       1.0  0.55056  0.22668  0.00086  1.0000
  H   H41       1.0  0.51856  0.21874  0.04316  1.0000
  H   H42       1.0  0.58514  0.25002  0.03778  1.0000
  H   H43       1.0  0.56798  0.31833  0.05644  1.0000
  H   H44       1.0  0.51853  0.32604  0.01382  1.0000
  C   C45       1.0  0.76504  0.29064  0.26344  1.0000
  C   C46       1.0  0.71962  0.24444  0.26369  1.0000
  H   H45       1.0  0.70252  0.23000  0.20356  1.0000
  H   H46       1.0  0.77878  0.30782  0.20304  1.0000
  C   C47       1.0  0.78385  0.32620  0.00110  1.0000
  H   H47       1.0  0.79189  0.30222  0.04342  1.0000
  H   H48       1.0  0.76056  0.33747  0.03808  1.0000
  H   H49       1.0  0.69243  0.25199  0.05732  1.0000
  H   H50       1.0  0.68419  0.19466  0.01451  1.0000
  C   C48       1.0  0.19451  0.55785  0.34485  1.0000
  C   C49       1.0  0.22003  0.61072  0.34659  1.0000
  C   C50       1.0  0.19458  0.63814  0.34464  1.0000
  C   C51       1.0  0.14150  0.61111  0.34225  1.0000
  C   C52       1.0  0.14143  0.53185  0.34242  1.0000
  H   H51       1.0  0.25847  0.62992  0.34874  1.0000
  C   C53       1.0  0.45211  0.63846  0.34527  1.0000
  C   C54       1.0  0.39923  0.61112  0.34721  1.0000
  C   C55       1.0  0.37180  0.55826  0.34497  1.0000
  C   C56       1.0  0.39884  0.53221  0.34228  1.0000
  C   C57       1.0  0.45210  0.55813  0.34206  1.0000
  C   C58       1.0  0.47810  0.61139  0.34264  1.0000
  H   H52       1.0  0.37945  0.49389  0.34146  1.0000
  H   H53       1.0  0.51642  0.63072  0.34200  1.0000
  H   H54       1.0  0.38004  0.63036  0.34958  1.0000
  C   C59       1.0  0.37152  0.81541  0.34384  1.0000
  C   C60       1.0  0.39881  0.78981  0.34532  1.0000
  C   C61       1.0  0.45168  0.81520  0.34395  1.0000
  C   C62       1.0  0.47781  0.86829  0.34255  1.0000
  C   C63       1.0  0.45197  0.89570  0.34210  1.0000
  C   C64       1.0  0.39870  0.86850  0.34202  1.0000
  H   H55       1.0  0.51613  0.88718  0.34227  1.0000
  H   H56       1.0  0.37942  0.88754  0.34148  1.0000
  H   H57       1.0  0.37952  0.75137  0.34716  1.0000
  C   C65       1.0  0.81736  0.44990  0.33958  1.0000
  C   C66       1.0  0.79184  0.39705  0.34284  1.0000
  C   C67       1.0  0.81720  0.36957  0.33954  1.0000
  C   C68       1.0  0.87022  0.39651  0.33472  1.0000
  C   C69       1.0  0.89755  0.44974  0.33306  1.0000
  C   C70       1.0  0.87038  0.47582  0.33460  1.0000
  H   H58       1.0  0.88914  0.37710  0.33425  1.0000
  H   H59       1.0  0.88941  0.51414  0.33409  1.0000
  H   H60       1.0  0.75344  0.37789  0.34657  1.0000
  C   C71       1.0  0.56010  0.36928  0.33913  1.0000
  C   C72       1.0  0.61297  0.39663  0.34220  1.0000
  C   C73       1.0  0.64044  0.44948  0.33912  1.0000
  C   C74       1.0  0.61349  0.47556  0.33466  1.0000
  C   C75       1.0  0.56025  0.44965  0.33305  1.0000
  C   C76       1.0  0.53419  0.39639  0.33446  1.0000
  H   H61       1.0  0.63289  0.51387  0.33429  1.0000
  H   H62       1.0  0.49586  0.37710  0.33403  1.0000
  H   H63       1.0  0.63213  0.37739  0.34575  1.0000
  C   C77       1.0  0.64080  0.19261  0.33999  1.0000
  C   C78       1.0  0.61338  0.21805  0.34313  1.0000
  C   C79       1.0  0.56054  0.19261  0.33963  1.0000
  C   C80       1.0  0.53458  0.13958  0.33468  1.0000
  C   C81       1.0  0.56058  0.11233  0.33338  1.0000
  C   C82       1.0  0.61382  0.13960  0.33518  1.0000
  H   H64       1.0  0.49626  0.12059  0.33397  1.0000
  H   H65       1.0  0.63318  0.12064  0.33480  1.0000
  H   H66       1.0  0.63258  0.25645  0.34684  1.0000
  C   C83       1.0  0.97816  0.48950  0.41497  1.0000
  H   H67       1.0  0.95846  0.47922  0.47334  1.0000
  H   H68       1.0  0.97428  0.49007  0.61814  1.0000
  C   C84       1.0  0.49403  0.51705  0.41799  1.0000
  C   C85       1.0  0.52057  0.49059  0.41499  1.0000
  H   H69       1.0  0.53095  0.48127  0.47336  1.0000
  H   H70       1.0  0.48568  0.52609  0.47909  1.0000
  H   H71       1.0  0.44914  0.50257  0.64107  1.0000
  H   H72       1.0  0.50733  0.55996  0.64094  1.0000
  H   H73       1.0  0.51956  0.48574  0.61815  1.0000
  C   C86       1.0  0.49484  0.97867  0.41815  1.0000
  C   C87       1.0  0.52159  0.03168  0.41522  1.0000
  H   H74       1.0  0.53278  0.05132  0.47364  1.0000
  H   H75       1.0  0.48699  0.96126  0.47921  1.0000
  H   H76       1.0  0.50590  0.94903  0.64106  1.0000
  H   H77       1.0  0.44789  0.94858  0.64129  1.0000
  H   H78       1.0  0.51682  0.03572  0.61837  1.0000
  C   C88       1.0  0.22405  0.53434  0.34815  1.0000
  C   C89       1.0  0.24938  0.53679  0.42916  1.0000
  C   C90       1.0  0.29558  0.53691  0.42928  1.0000
  C   C91       1.0  0.31879  0.53483  0.34839  1.0000
  N   N7        1.0  0.31838  0.54176  0.50978  1.0000
  C   C92       1.0  0.30005  0.54634  0.58999  1.0000
  C   C93       1.0  0.25441  0.54703  0.58963  1.0000
  N   N8        1.0  0.23162  0.54226  0.50932  1.0000
  H   H79       1.0  0.36136  0.54631  0.65615  1.0000
  H   H80       1.0  0.21751  0.57996  0.65568  1.0000
  C   C94       1.0  0.47562  0.69150  0.34868  1.0000
  C   C95       1.0  0.47342  0.71478  0.42930  1.0000
  C   C96       1.0  0.47338  0.76089  0.42893  1.0000
  C   C97       1.0  0.47508  0.78558  0.34756  1.0000
  N   N9        1.0  0.46876  0.77918  0.50922  1.0000
  C   C98       1.0  0.46434  0.75654  0.58968  1.0000
  C   C99       1.0  0.46351  0.71015  0.58979  1.0000
  N   N10       1.0  0.46806  0.69179  0.50969  1.0000
  H   H81       1.0  0.46473  0.81822  0.65525  1.0000
  H   H82       1.0  0.43042  0.64050  0.65652  1.0000
  C   C100      1.0  0.31847  0.78590  0.34719  1.0000
  C   C101      1.0  0.29556  0.76072  0.42831  1.0000
  C   C102      1.0  0.24946  0.71452  0.42862  1.0000
  C   C103      1.0  0.22417  0.69116  0.34782  1.0000
  N   N11       1.0  0.23152  0.69187  0.50923  1.0000
  C   C104      1.0  0.25445  0.71033  0.58938  1.0000
  C   C105      1.0  0.30081  0.75592  0.58882  1.0000
  N   N12       1.0  0.31883  0.77858  0.50842  1.0000
  H   H83       1.0  0.19302  0.64925  0.65586  1.0000
  H   H84       1.0  0.37073  0.79326  0.65454  1.0000
  C   C106      1.0  0.78794  0.47350  0.34392  1.0000
  C   C107      1.0  0.76236  0.47067  0.42477  1.0000
  C   C108      1.0  0.71619  0.47057  0.42464  1.0000
  C   C109      1.0  0.69345  0.47296  0.34346  1.0000
  N   N13       1.0  0.69329  0.46578  0.50501  1.0000
  C   C110      1.0  0.71156  0.46126  0.58534  1.0000
  C   C111      1.0  0.75718  0.46053  0.58524  1.0000
  N   N14       1.0  0.78007  0.46523  0.50503  1.0000
  H   H85       1.0  0.65044  0.46179  0.65135  1.0000
  C   C112      1.0  0.78257  0.45548  0.66525  1.0000
  H   H86       1.0  0.79484  0.42855  0.65187  1.0000
  C   C113      1.0  0.53653  0.31624  0.34343  1.0000
  C   C114      1.0  0.53942  0.29369  0.42449  1.0000
  C   C115      1.0  0.53957  0.24764  0.42464  1.0000
  C   C116      1.0  0.53703  0.22211  0.34380  1.0000
  N   N15       1.0  0.54444  0.22972  0.50515  1.0000
  C   C117      1.0  0.54901  0.25265  0.58535  1.0000
  C   C118      1.0  0.54967  0.29896  0.58495  1.0000
  N   N16       1.0  0.54488  0.31697  0.50461  1.0000
  H   H87       1.0  0.54864  0.19118  0.65175  1.0000
  C   C119      1.0  0.55468  0.32951  0.66479  1.0000
  H   H88       1.0  0.58148  0.36871  0.65115  1.0000
  C   C120      1.0  0.69380  0.22208  0.34437  1.0000
  C   C121      1.0  0.71647  0.24767  0.42523  1.0000
  C   C122      1.0  0.76251  0.29386  0.42510  1.0000
  C   C123      1.0  0.78769  0.31657  0.34392  1.0000
  N   N17       1.0  0.78056  0.31680  0.50545  1.0000
  C   C124      1.0  0.75775  0.29855  0.58577  1.0000
  C   C125      1.0  0.71143  0.25290  0.58566  1.0000
  N   N18       1.0  0.69330  0.22998  0.50547  1.0000
  H   H89       1.0  0.81931  0.35977  0.65175  1.0000
  C   C126      1.0  0.68097  0.22751  0.66566  1.0000
  H   H90       1.0  0.64180  0.21538  0.65232  1.0000
