data_image0
_chemical_formula_structural       SiC12H8C9H3NO2NH2NO2C12H7CHCO4C3H2C2HNO2NHC6H2C6H3NO2NHNHSiC12H8C9H3NO2NH2NO2C12H7CHCO4C3H2C2HNO2NHC6H2C6H3NO2NHNHSiC12H8C9H3NO2NH2NO2C12H7CHCO4C3H2C2HNO2NHC6H2C6H3NO2NHNHSiC12H8C9H3NO2NH2NO2C12H7CHCO4C3H2C2HNO2NHC6H2C6H3NO2NHNH
_chemical_formula_sum              "Si4 C208 H128 N32 O48"
_cell_length_a       37.9768
_cell_length_b       37.975
_cell_length_c       15.0081
_cell_angle_alpha    90
_cell_angle_beta     90
_cell_angle_gamma    90.1843

_space_group_name_H-M_alt    "P 1"
_space_group_IT_number       1

loop_
  _space_group_symop_operation_xyz
  'x, y, z'

loop_
  _atom_site_type_symbol
  _atom_site_label
  _atom_site_symmetry_multiplicity
  _atom_site_fract_x
  _atom_site_fract_y
  _atom_site_fract_z
  _atom_site_occupancy
  Si  Si1       1.0  0.49772  0.50283  0.06183  1.0000
  C   C1        1.0  0.49011  0.46731  0.12392  1.0000
  C   C2        1.0  0.00639  0.03222  0.14115  1.0000
  C   C3        1.0  0.47854  0.04914  0.18659  1.0000
  C   C4        1.0  0.48458  0.06794  0.26589  1.0000
  C   C5        1.0  0.01835  0.06921  0.30619  1.0000
  C   C6        1.0  0.04604  0.05185  0.26088  1.0000
  C   C7        1.0  0.04020  0.03348  0.18086  1.0000
  C   C8        1.0  0.01878  0.44741  0.15682  1.0000
  C   C9        1.0  0.01341  0.41961  0.21688  1.0000
  C   C10       1.0  0.47933  0.41135  0.24843  1.0000
  C   C11       1.0  0.45091  0.43261  0.22068  1.0000
  C   C12       1.0  0.45627  0.46031  0.15974  1.0000
  H   H1        1.0  0.46349  0.08037  0.29375  1.0000
  H   H2        1.0  0.45318  0.04751  0.16379  1.0000
  H   H3        1.0  0.07104  0.05193  0.28615  1.0000
  H   H4        1.0  0.06099  0.02016  0.15373  1.0000
  H   H5        1.0  0.04413  0.45272  0.13773  1.0000
  H   H6        1.0  0.03484  0.40562  0.23807  1.0000
  H   H7        1.0  0.42590  0.42757  0.24276  1.0000
  H   H8        1.0  0.43499  0.47527  0.14221  1.0000
  C   C13       1.0  0.02546  0.08950  0.38493  1.0000
  C   C14       1.0  0.47412  0.38141  0.30370  1.0000
  C   C15       1.0  0.03006  0.16500  0.43120  1.0000
  C   C16       1.0  0.02644  0.20176  0.42785  1.0000
  C   C17       1.0  0.49340  0.21746  0.44314  1.0000
  C   C18       1.0  0.48723  0.25145  0.40754  1.0000
  C   C19       1.0  0.48106  0.25443  0.31447  1.0000
  C   C20       1.0  0.48040  0.28815  0.27516  1.0000
  C   C21       1.0  0.48524  0.31894  0.32620  1.0000
  H   H9        1.0  0.97732  0.29017  0.20757  1.0000
  H   H10       1.0  0.05352  0.15507  0.41031  1.0000
  H   H11       1.0  0.04697  0.21649  0.40365  1.0000
  N   N1        1.0  0.47704  0.22377  0.26129  1.0000
  O   O1        1.0  0.00086  0.22140  0.20345  1.0000
  O   O2        1.0  0.44763  0.22309  0.22299  1.0000
  N   N2        1.0  0.98963  0.35023  0.28264  1.0000
  H   H12       1.0  0.00288  0.34910  0.22690  1.0000
  H   H13       1.0  0.15597  0.00716  0.25289  1.0000
  N   N3        1.0  0.22234  0.50665  0.19202  1.0000
  O   O3        1.0  0.21183  0.03298  0.14901  1.0000
  O   O4        1.0  0.21185  0.47926  0.15309  1.0000
  C   C22       1.0  0.08354  0.48831  0.52271  1.0000
  C   C23       1.0  0.06215  0.45974  0.54985  1.0000
  C   C24       1.0  0.03556  0.46425  0.61390  1.0000
  C   C25       1.0  0.03036  0.49721  0.65599  1.0000
  C   C26       1.0  0.05042  0.02624  0.62524  1.0000
  C   C27       1.0  0.07688  0.02175  0.56065  1.0000
  C   C28       1.0  0.46456  0.01296  0.66104  1.0000
  C   C29       1.0  0.45783  0.04828  0.63623  1.0000
  C   C30       1.0  0.43261  0.05628  0.57069  1.0000
  C   C31       1.0  0.41473  0.02928  0.52399  1.0000
  C   C32       1.0  0.42224  0.49397  0.54677  1.0000
  C   C33       1.0  0.44694  0.48596  0.61340  1.0000
  H   H14       1.0  0.45182  0.45994  0.62612  1.0000
  H   H15       1.0  0.40917  0.47358  0.51680  1.0000
  H   H16       1.0  0.42792  0.08216  0.55598  1.0000
  H   H17       1.0  0.47123  0.06874  0.66507  1.0000
  H   H18       1.0  0.04671  0.05093  0.65087  1.0000
  H   H19       1.0  0.02055  0.44276  0.63018  1.0000
  H   H20       1.0  0.06583  0.43516  0.52348  1.0000
  C   C34       1.0  0.38763  0.03763  0.46214  1.0000
  H   H21       1.0  0.09225  0.04301  0.54485  1.0000
  C   C35       1.0  0.11322  0.48235  0.46700  1.0000
  O   O5        1.0  0.44910  0.38276  0.36792  1.0000
  O   O6        1.0  0.05912  0.09202  0.41422  1.0000
  O   O7        1.0  0.36511  0.06323  0.48846  1.0000
  O   O8        1.0  0.13049  0.45143  0.47776  1.0000
  C   C36       1.0  0.50102  0.14263  0.45069  1.0000
  C   C37       1.0  0.46492  0.19606  0.46989  1.0000
  C   C38       1.0  0.46898  0.15929  0.47508  1.0000
  H   H22       1.0  0.44029  0.20658  0.47678  1.0000
  H   H23       1.0  0.44692  0.14448  0.48691  1.0000
  C   C39       1.0  0.49022  0.31561  0.41904  1.0000
  C   C40       1.0  0.49165  0.28211  0.46044  1.0000
  H   H24       1.0  0.49530  0.33762  0.45624  1.0000
  N   N4        1.0  0.49865  0.27857  0.55271  1.0000
  O   O9        1.0  0.02813  0.29140  0.57294  1.0000
  O   O10       1.0  0.47540  0.29341  0.59876  1.0000
  N   N5        1.0  0.50047  0.10668  0.43333  1.0000
  H   H25       1.0  0.47712  0.09610  0.43160  1.0000
  C   C41       1.0  0.34639  0.51398  0.35785  1.0000
  C   C42       1.0  0.32656  0.04328  0.32882  1.0000
  C   C43       1.0  0.28985  0.04058  0.31780  1.0000
  C   C44       1.0  0.27248  0.50826  0.33386  1.0000
  C   C45       1.0  0.29264  0.47821  0.35500  1.0000
  C   C46       1.0  0.32929  0.48101  0.36605  1.0000
  H   H26       1.0  0.28050  0.45493  0.37087  1.0000
  H   H27       1.0  0.34280  0.45967  0.38957  1.0000
  C   C47       1.0  0.23578  0.50806  0.35161  1.0000
  C   C48       1.0  0.21063  0.50765  0.28159  1.0000
  C   C49       1.0  0.17426  0.50775  0.30294  1.0000
  C   C50       1.0  0.16283  0.50746  0.39223  1.0000
  C   C51       1.0  0.18812  0.50882  0.46083  1.0000
  C   C52       1.0  0.22449  0.50920  0.44187  1.0000
  H   H28       1.0  0.18000  0.50978  0.52583  1.0000
  H   H29       1.0  0.33827  0.06748  0.32337  1.0000
  H   H30       1.0  0.27568  0.06302  0.30644  1.0000
  N   N6        1.0  0.24948  0.51113  0.51205  1.0000
  O   O11       1.0  0.24618  0.03896  0.55653  1.0000
  O   O12       1.0  0.24701  0.48524  0.56386  1.0000
  N   N7        1.0  0.12794  0.00743  0.41368  1.0000
  H   H31       1.0  0.11511  0.02907  0.40184  1.0000
  N   N8        1.0  0.38014  0.51734  0.38927  1.0000
  H   H32       1.0  0.39601  0.49794  0.37583  1.0000
  Si  Si2       1.0  0.49772  0.00283  0.06183  1.0000
  C   C53       1.0  0.49011  0.96731  0.12392  1.0000
  C   C54       1.0  0.00639  0.53222  0.14115  1.0000
  C   C55       1.0  0.47854  0.54914  0.18659  1.0000
  C   C56       1.0  0.48458  0.56795  0.26589  1.0000
  C   C57       1.0  0.01835  0.56921  0.30619  1.0000
  C   C58       1.0  0.04604  0.55185  0.26088  1.0000
  C   C59       1.0  0.04020  0.53348  0.18086  1.0000
  C   C60       1.0  0.01878  0.94741  0.15682  1.0000
  C   C61       1.0  0.01341  0.91961  0.21688  1.0000
  C   C62       1.0  0.47933  0.91135  0.24843  1.0000
  C   C63       1.0  0.45091  0.93261  0.22068  1.0000
  C   C64       1.0  0.45627  0.96031  0.15974  1.0000
  H   H33       1.0  0.46350  0.58037  0.29375  1.0000
  H   H34       1.0  0.45318  0.54751  0.16379  1.0000
  H   H35       1.0  0.07104  0.55193  0.28615  1.0000
  H   H36       1.0  0.06099  0.52016  0.15373  1.0000
  H   H37       1.0  0.04413  0.95272  0.13773  1.0000
  H   H38       1.0  0.03484  0.90562  0.23807  1.0000
  H   H39       1.0  0.42590  0.92756  0.24276  1.0000
  H   H40       1.0  0.43499  0.97527  0.14221  1.0000
  C   C65       1.0  0.02546  0.58950  0.38493  1.0000
  C   C66       1.0  0.47412  0.88141  0.30370  1.0000
  C   C67       1.0  0.03006  0.66500  0.43120  1.0000
  C   C68       1.0  0.02644  0.70176  0.42785  1.0000
  C   C69       1.0  0.49340  0.71747  0.44314  1.0000
  C   C70       1.0  0.48723  0.75145  0.40754  1.0000
  C   C71       1.0  0.48106  0.75443  0.31447  1.0000
  C   C72       1.0  0.48040  0.78815  0.27516  1.0000
  C   C73       1.0  0.48524  0.81894  0.32620  1.0000
  H   H41       1.0  0.97732  0.79017  0.20757  1.0000
  H   H42       1.0  0.05352  0.65507  0.41031  1.0000
  H   H43       1.0  0.04697  0.71649  0.40365  1.0000
  N   N9        1.0  0.47704  0.72377  0.26129  1.0000
  O   O13       1.0  0.00086  0.72140  0.20345  1.0000
  O   O14       1.0  0.44763  0.72309  0.22299  1.0000
  N   N10       1.0  0.98963  0.85023  0.28264  1.0000
  H   H44       1.0  0.00288  0.84910  0.22690  1.0000
  H   H45       1.0  0.15597  0.50716  0.25289  1.0000
  N   N11       1.0  0.22234  0.00665  0.19202  1.0000
  O   O15       1.0  0.21183  0.53298  0.14901  1.0000
  O   O16       1.0  0.21185  0.97926  0.15309  1.0000
  C   C74       1.0  0.08354  0.98831  0.52271  1.0000
  C   C75       1.0  0.06215  0.95974  0.54985  1.0000
  C   C76       1.0  0.03556  0.96425  0.61390  1.0000
  C   C77       1.0  0.03036  0.99721  0.65599  1.0000
  C   C78       1.0  0.05042  0.52624  0.62524  1.0000
  C   C79       1.0  0.07688  0.52175  0.56065  1.0000
  C   C80       1.0  0.46456  0.51296  0.66104  1.0000
  C   C81       1.0  0.45783  0.54828  0.63623  1.0000
  C   C82       1.0  0.43261  0.55628  0.57069  1.0000
  C   C83       1.0  0.41473  0.52928  0.52399  1.0000
  C   C84       1.0  0.42224  0.99397  0.54677  1.0000
  C   C85       1.0  0.44694  0.98596  0.61340  1.0000
  H   H46       1.0  0.45182  0.95994  0.62612  1.0000
  H   H47       1.0  0.40917  0.97357  0.51680  1.0000
  H   H48       1.0  0.42792  0.58215  0.55598  1.0000
  H   H49       1.0  0.47123  0.56874  0.66507  1.0000
  H   H50       1.0  0.04671  0.55093  0.65087  1.0000
  H   H51       1.0  0.02055  0.94276  0.63018  1.0000
  H   H52       1.0  0.06583  0.93516  0.52348  1.0000
  C   C86       1.0  0.38763  0.53763  0.46214  1.0000
  H   H53       1.0  0.09225  0.54300  0.54485  1.0000
  C   C87       1.0  0.11322  0.98235  0.46700  1.0000
  O   O17       1.0  0.44910  0.88276  0.36792  1.0000
  O   O18       1.0  0.05912  0.59202  0.41422  1.0000
  O   O19       1.0  0.36511  0.56323  0.48846  1.0000
  O   O20       1.0  0.13049  0.95143  0.47776  1.0000
  C   C88       1.0  0.50102  0.64263  0.45069  1.0000
  C   C89       1.0  0.46492  0.69606  0.46989  1.0000
  C   C90       1.0  0.46898  0.65929  0.47508  1.0000
  H   H54       1.0  0.44029  0.70657  0.47678  1.0000
  H   H55       1.0  0.44692  0.64448  0.48691  1.0000
  C   C91       1.0  0.49022  0.81561  0.41904  1.0000
  C   C92       1.0  0.49165  0.78211  0.46044  1.0000
  H   H56       1.0  0.49530  0.83762  0.45624  1.0000
  N   N12       1.0  0.49865  0.77857  0.55271  1.0000
  O   O21       1.0  0.02813  0.79140  0.57294  1.0000
  O   O22       1.0  0.47540  0.79341  0.59876  1.0000
  N   N13       1.0  0.50047  0.60668  0.43333  1.0000
  H   H57       1.0  0.47712  0.59610  0.43160  1.0000
  C   C93       1.0  0.34639  0.01398  0.35785  1.0000
  C   C94       1.0  0.32656  0.54328  0.32882  1.0000
  C   C95       1.0  0.28985  0.54058  0.31780  1.0000
  C   C96       1.0  0.27248  0.00826  0.33386  1.0000
  C   C97       1.0  0.29264  0.97821  0.35500  1.0000
  C   C98       1.0  0.32929  0.98101  0.36605  1.0000
  H   H58       1.0  0.28050  0.95493  0.37087  1.0000
  H   H59       1.0  0.34280  0.95967  0.38957  1.0000
  C   C99       1.0  0.23578  0.00806  0.35161  1.0000
  C   C100      1.0  0.21063  0.00765  0.28159  1.0000
  C   C101      1.0  0.17426  0.00775  0.30294  1.0000
  C   C102      1.0  0.16283  0.00746  0.39223  1.0000
  C   C103      1.0  0.18812  0.00882  0.46083  1.0000
  C   C104      1.0  0.22449  0.00920  0.44187  1.0000
  H   H60       1.0  0.18000  0.00978  0.52583  1.0000
  H   H61       1.0  0.33827  0.56748  0.32337  1.0000
  H   H62       1.0  0.27568  0.56302  0.30644  1.0000
  N   N14       1.0  0.24948  0.01113  0.51205  1.0000
  O   O23       1.0  0.24618  0.53897  0.55653  1.0000
  O   O24       1.0  0.24701  0.98524  0.56386  1.0000
  N   N15       1.0  0.12794  0.50743  0.41368  1.0000
  H   H63       1.0  0.11511  0.52907  0.40184  1.0000
  N   N16       1.0  0.38014  0.01734  0.38927  1.0000
  H   H64       1.0  0.39601  0.99794  0.37583  1.0000
  Si  Si3       1.0  0.99772  0.50283  0.06183  1.0000
  C   C105      1.0  0.99011  0.46731  0.12392  1.0000
  C   C106      1.0  0.50639  0.03222  0.14115  1.0000
  C   C107      1.0  0.97854  0.04914  0.18659  1.0000
  C   C108      1.0  0.98458  0.06794  0.26589  1.0000
  C   C109      1.0  0.51835  0.06921  0.30619  1.0000
  C   C110      1.0  0.54604  0.05185  0.26088  1.0000
  C   C111      1.0  0.54019  0.03348  0.18086  1.0000
  C   C112      1.0  0.51878  0.44741  0.15682  1.0000
  C   C113      1.0  0.51341  0.41961  0.21688  1.0000
  C   C114      1.0  0.97933  0.41135  0.24843  1.0000
  C   C115      1.0  0.95091  0.43261  0.22068  1.0000
  C   C116      1.0  0.95627  0.46031  0.15974  1.0000
  H   H65       1.0  0.96349  0.08037  0.29375  1.0000
  H   H66       1.0  0.95318  0.04751  0.16379  1.0000
  H   H67       1.0  0.57103  0.05193  0.28615  1.0000
  H   H68       1.0  0.56099  0.02016  0.15373  1.0000
  H   H69       1.0  0.54413  0.45272  0.13773  1.0000
  H   H70       1.0  0.53484  0.40562  0.23807  1.0000
  H   H71       1.0  0.92590  0.42757  0.24276  1.0000
  H   H72       1.0  0.93499  0.47527  0.14221  1.0000
  C   C117      1.0  0.52546  0.08950  0.38493  1.0000
  C   C118      1.0  0.97412  0.38141  0.30370  1.0000
  C   C119      1.0  0.53006  0.16500  0.43120  1.0000
  C   C120      1.0  0.52644  0.20176  0.42785  1.0000
  C   C121      1.0  0.99340  0.21746  0.44314  1.0000
  C   C122      1.0  0.98723  0.25145  0.40754  1.0000
  C   C123      1.0  0.98106  0.25443  0.31447  1.0000
  C   C124      1.0  0.98040  0.28815  0.27516  1.0000
  C   C125      1.0  0.98525  0.31894  0.32620  1.0000
  H   H73       1.0  0.47732  0.29017  0.20757  1.0000
  H   H74       1.0  0.55352  0.15507  0.41031  1.0000
  H   H75       1.0  0.54697  0.21649  0.40365  1.0000
  N   N17       1.0  0.97704  0.22377  0.26129  1.0000
  O   O25       1.0  0.50086  0.22140  0.20345  1.0000
  O   O26       1.0  0.94763  0.22309  0.22299  1.0000
  N   N18       1.0  0.48963  0.35023  0.28264  1.0000
  H   H76       1.0  0.50288  0.34910  0.22690  1.0000
  H   H77       1.0  0.65597  0.00716  0.25289  1.0000
  N   N19       1.0  0.72234  0.50665  0.19202  1.0000
  O   O27       1.0  0.71183  0.03298  0.14901  1.0000
  O   O28       1.0  0.71184  0.47926  0.15309  1.0000
  C   C126      1.0  0.58354  0.48831  0.52271  1.0000
  C   C127      1.0  0.56215  0.45974  0.54985  1.0000
  C   C128      1.0  0.53556  0.46425  0.61390  1.0000
  C   C129      1.0  0.53035  0.49721  0.65599  1.0000
  C   C130      1.0  0.55042  0.02624  0.62524  1.0000
  C   C131      1.0  0.57688  0.02175  0.56065  1.0000
  C   C132      1.0  0.96456  0.01296  0.66104  1.0000
  C   C133      1.0  0.95783  0.04828  0.63623  1.0000
  C   C134      1.0  0.93261  0.05628  0.57069  1.0000
  C   C135      1.0  0.91473  0.02928  0.52399  1.0000
  C   C136      1.0  0.92224  0.49397  0.54677  1.0000
  C   C137      1.0  0.94694  0.48596  0.61340  1.0000
  H   H78       1.0  0.95182  0.45994  0.62612  1.0000
  H   H79       1.0  0.90917  0.47358  0.51680  1.0000
  H   H80       1.0  0.92792  0.08216  0.55598  1.0000
  H   H81       1.0  0.97123  0.06874  0.66507  1.0000
  H   H82       1.0  0.54671  0.05093  0.65087  1.0000
  H   H83       1.0  0.52055  0.44276  0.63018  1.0000
  H   H84       1.0  0.56583  0.43516  0.52348  1.0000
  C   C138      1.0  0.88763  0.03763  0.46214  1.0000
  H   H85       1.0  0.59225  0.04301  0.54485  1.0000
  C   C139      1.0  0.61322  0.48235  0.46700  1.0000
  O   O29       1.0  0.94910  0.38276  0.36792  1.0000
  O   O30       1.0  0.55912  0.09202  0.41422  1.0000
  O   O31       1.0  0.86511  0.06323  0.48846  1.0000
  O   O32       1.0  0.63049  0.45143  0.47776  1.0000
  C   C140      1.0  0.00102  0.14263  0.45069  1.0000
  C   C141      1.0  0.96493  0.19606  0.46989  1.0000
  C   C142      1.0  0.96898  0.15929  0.47508  1.0000
  H   H86       1.0  0.94029  0.20658  0.47678  1.0000
  H   H87       1.0  0.94692  0.14448  0.48691  1.0000
  C   C143      1.0  0.99022  0.31561  0.41904  1.0000
  C   C144      1.0  0.99165  0.28211  0.46044  1.0000
  H   H88       1.0  0.99530  0.33762  0.45624  1.0000
  N   N20       1.0  0.99865  0.27857  0.55271  1.0000
  O   O33       1.0  0.52813  0.29140  0.57294  1.0000
  O   O34       1.0  0.97539  0.29341  0.59876  1.0000
  N   N21       1.0  0.00047  0.10668  0.43333  1.0000
  H   H89       1.0  0.97712  0.09610  0.43160  1.0000
  C   C145      1.0  0.84639  0.51398  0.35785  1.0000
  C   C146      1.0  0.82656  0.04328  0.32882  1.0000
  C   C147      1.0  0.78985  0.04058  0.31780  1.0000
  C   C148      1.0  0.77248  0.50826  0.33386  1.0000
  C   C149      1.0  0.79264  0.47821  0.35500  1.0000
  C   C150      1.0  0.82929  0.48101  0.36605  1.0000
  H   H90       1.0  0.78050  0.45493  0.37087  1.0000
  H   H91       1.0  0.84280  0.45967  0.38957  1.0000
  C   C151      1.0  0.73578  0.50806  0.35161  1.0000
  C   C152      1.0  0.71063  0.50765  0.28159  1.0000
  C   C153      1.0  0.67426  0.50775  0.30294  1.0000
  C   C154      1.0  0.66282  0.50746  0.39223  1.0000
  C   C155      1.0  0.68812  0.50882  0.46083  1.0000
  C   C156      1.0  0.72448  0.50920  0.44187  1.0000
  H   H92       1.0  0.68000  0.50978  0.52583  1.0000
  H   H93       1.0  0.83827  0.06748  0.32337  1.0000
  H   H94       1.0  0.77568  0.06302  0.30644  1.0000
  N   N22       1.0  0.74948  0.51113  0.51205  1.0000
  O   O35       1.0  0.74618  0.03896  0.55653  1.0000
  O   O36       1.0  0.74701  0.48524  0.56386  1.0000
  N   N23       1.0  0.62794  0.00743  0.41368  1.0000
  H   H95       1.0  0.61511  0.02907  0.40184  1.0000
  N   N24       1.0  0.88014  0.51734  0.38927  1.0000
  H   H96       1.0  0.89601  0.49794  0.37583  1.0000
  Si  Si4       1.0  0.99772  0.00283  0.06183  1.0000
  C   C157      1.0  0.99011  0.96731  0.12392  1.0000
  C   C158      1.0  0.50639  0.53222  0.14115  1.0000
  C   C159      1.0  0.97854  0.54914  0.18659  1.0000
  C   C160      1.0  0.98458  0.56795  0.26589  1.0000
  C   C161      1.0  0.51835  0.56921  0.30619  1.0000
  C   C162      1.0  0.54604  0.55185  0.26088  1.0000
  C   C163      1.0  0.54019  0.53348  0.18086  1.0000
  C   C164      1.0  0.51878  0.94741  0.15682  1.0000
  C   C165      1.0  0.51341  0.91961  0.21688  1.0000
  C   C166      1.0  0.97933  0.91135  0.24843  1.0000
  C   C167      1.0  0.95091  0.93261  0.22068  1.0000
  C   C168      1.0  0.95627  0.96031  0.15974  1.0000
  H   H97       1.0  0.96350  0.58037  0.29375  1.0000
  H   H98       1.0  0.95318  0.54751  0.16379  1.0000
  H   H99       1.0  0.57104  0.55193  0.28615  1.0000
  H   H100      1.0  0.56099  0.52016  0.15373  1.0000
  H   H101      1.0  0.54413  0.95272  0.13773  1.0000
  H   H102      1.0  0.53484  0.90562  0.23807  1.0000
  H   H103      1.0  0.92590  0.92756  0.24276  1.0000
  H   H104      1.0  0.93499  0.97527  0.14221  1.0000
  C   C169      1.0  0.52546  0.58950  0.38493  1.0000
  C   C170      1.0  0.97411  0.88141  0.30370  1.0000
  C   C171      1.0  0.53006  0.66500  0.43120  1.0000
  C   C172      1.0  0.52644  0.70176  0.42785  1.0000
  C   C173      1.0  0.99340  0.71747  0.44314  1.0000
  C   C174      1.0  0.98723  0.75145  0.40754  1.0000
  C   C175      1.0  0.98106  0.75443  0.31447  1.0000
  C   C176      1.0  0.98040  0.78815  0.27516  1.0000
  C   C177      1.0  0.98525  0.81894  0.32620  1.0000
  H   H105      1.0  0.47732  0.79017  0.20757  1.0000
  H   H106      1.0  0.55352  0.65507  0.41031  1.0000
  H   H107      1.0  0.54697  0.71649  0.40365  1.0000
  N   N25       1.0  0.97704  0.72377  0.26129  1.0000
  O   O37       1.0  0.50086  0.72140  0.20345  1.0000
  O   O38       1.0  0.94763  0.72309  0.22299  1.0000
  N   N26       1.0  0.48963  0.85023  0.28264  1.0000
  H   H108      1.0  0.50288  0.84910  0.22690  1.0000
  H   H109      1.0  0.65597  0.50716  0.25289  1.0000
  N   N27       1.0  0.72234  0.00665  0.19202  1.0000
  O   O39       1.0  0.71183  0.53298  0.14901  1.0000
  O   O40       1.0  0.71185  0.97926  0.15309  1.0000
  C   C178      1.0  0.58354  0.98831  0.52271  1.0000
  C   C179      1.0  0.56215  0.95974  0.54985  1.0000
  C   C180      1.0  0.53556  0.96425  0.61390  1.0000
  C   C181      1.0  0.53036  0.99721  0.65599  1.0000
  C   C182      1.0  0.55042  0.52624  0.62524  1.0000
  C   C183      1.0  0.57688  0.52175  0.56065  1.0000
  C   C184      1.0  0.96456  0.51296  0.66104  1.0000
  C   C185      1.0  0.95783  0.54828  0.63623  1.0000
  C   C186      1.0  0.93260  0.55628  0.57069  1.0000
  C   C187      1.0  0.91473  0.52928  0.52399  1.0000
  C   C188      1.0  0.92224  0.99397  0.54677  1.0000
  C   C189      1.0  0.94694  0.98596  0.61340  1.0000
  H   H110      1.0  0.95182  0.95994  0.62612  1.0000
  H   H111      1.0  0.90917  0.97357  0.51680  1.0000
  H   H112      1.0  0.92792  0.58215  0.55598  1.0000
  H   H113      1.0  0.97123  0.56874  0.66507  1.0000
  H   H114      1.0  0.54671  0.55093  0.65087  1.0000
  H   H115      1.0  0.52055  0.94276  0.63018  1.0000
  H   H116      1.0  0.56583  0.93516  0.52348  1.0000
  C   C190      1.0  0.88763  0.53763  0.46214  1.0000
  H   H117      1.0  0.59225  0.54300  0.54485  1.0000
  C   C191      1.0  0.61322  0.98235  0.46700  1.0000
  O   O41       1.0  0.94910  0.88276  0.36792  1.0000
  O   O42       1.0  0.55912  0.59202  0.41422  1.0000
  O   O43       1.0  0.86511  0.56323  0.48846  1.0000
  O   O44       1.0  0.63049  0.95143  0.47776  1.0000
  C   C192      1.0  0.00102  0.64263  0.45069  1.0000
  C   C193      1.0  0.96492  0.69606  0.46989  1.0000
  C   C194      1.0  0.96898  0.65929  0.47508  1.0000
  H   H118      1.0  0.94029  0.70657  0.47678  1.0000
  H   H119      1.0  0.94692  0.64448  0.48691  1.0000
  C   C195      1.0  0.99022  0.81561  0.41904  1.0000
  C   C196      1.0  0.99165  0.78211  0.46044  1.0000
  H   H120      1.0  0.99530  0.83762  0.45624  1.0000
  N   N28       1.0  0.99865  0.77857  0.55271  1.0000
  O   O45       1.0  0.52813  0.79140  0.57294  1.0000
  O   O46       1.0  0.97540  0.79341  0.59876  1.0000
  N   N29       1.0  0.00047  0.60668  0.43333  1.0000
  H   H121      1.0  0.97712  0.59610  0.43160  1.0000
  C   C197      1.0  0.84639  0.01398  0.35785  1.0000
  C   C198      1.0  0.82656  0.54328  0.32882  1.0000
  C   C199      1.0  0.78985  0.54058  0.31780  1.0000
  C   C200      1.0  0.77248  0.00826  0.33386  1.0000
  C   C201      1.0  0.79264  0.97821  0.35500  1.0000
  C   C202      1.0  0.82929  0.98101  0.36605  1.0000
  H   H122      1.0  0.78050  0.95493  0.37087  1.0000
  H   H123      1.0  0.84280  0.95967  0.38957  1.0000
  C   C203      1.0  0.73578  0.00806  0.35161  1.0000
  C   C204      1.0  0.71063  0.00765  0.28159  1.0000
  C   C205      1.0  0.67426  0.00775  0.30294  1.0000
  C   C206      1.0  0.66283  0.00746  0.39223  1.0000
  C   C207      1.0  0.68812  0.00882  0.46083  1.0000
  C   C208      1.0  0.72449  0.00920  0.44187  1.0000
  H   H124      1.0  0.68000  0.00978  0.52583  1.0000
  H   H125      1.0  0.83827  0.56748  0.32337  1.0000
  H   H126      1.0  0.77568  0.56302  0.30644  1.0000
  N   N30       1.0  0.74948  0.01113  0.51205  1.0000
  O   O47       1.0  0.74618  0.53897  0.55653  1.0000
  O   O48       1.0  0.74701  0.98524  0.56386  1.0000
  N   N31       1.0  0.62794  0.50743  0.41368  1.0000
  H   H127      1.0  0.61511  0.52907  0.40184  1.0000
  N   N32       1.0  0.88014  0.01734  0.38927  1.0000
  H   H128      1.0  0.89601  0.99794  0.37583  1.0000
