data_image0
_chemical_formula_structural       C3H2C3H2C3HC3H2NC2HCHC4H2C3HC6H2C4H2N2C2H2CHC2H2C2HC2HOCHC11H6C6H3C6N2C2HC2HCHC2HCHC7H6NC2HNO2CNOCNO2
_chemical_formula_sum              "C84 H45 N9 O6"
_cell_length_a       45.4605
_cell_length_b       45.4714
_cell_length_c       14.6776
_cell_angle_alpha    90
_cell_angle_beta     90
_cell_angle_gamma    119.983

_space_group_name_H-M_alt    "P 1"
_space_group_IT_number       1

loop_
  _space_group_symop_operation_xyz
  'x, y, z'

loop_
  _atom_site_type_symbol
  _atom_site_label
  _atom_site_symmetry_multiplicity
  _atom_site_fract_x
  _atom_site_fract_y
  _atom_site_fract_z
  _atom_site_occupancy
  C   C1        1.0  0.21698  0.61278  0.34925  1.0000
  C   C2        1.0  0.16325  0.60835  0.30202  1.0000
  C   C3        1.0  0.19905  0.62613  0.30266  1.0000
  H   H1        1.0  0.21174  0.64880  0.26873  1.0000
  H   H2        1.0  0.15088  0.61859  0.26777  1.0000
  C   C4        1.0  0.33232  0.69604  0.35091  1.0000
  C   C5        1.0  0.31382  0.66015  0.35100  1.0000
  C   C6        1.0  0.33150  0.64192  0.35087  1.0000
  H   H3        1.0  0.31816  0.61584  0.35071  1.0000
  H   H4        1.0  0.31958  0.70938  0.35077  1.0000
  C   C7        1.0  0.28059  0.64394  0.35055  1.0000
  C   C8        1.0  0.25020  0.62912  0.34989  1.0000
  C   C9        1.0  0.03997  0.53177  0.29207  1.0000
  H   H5        1.0  0.05631  0.54608  0.24132  1.0000
  C   C10       1.0  0.19851  0.58139  0.39484  1.0000
  C   C11       1.0  0.16274  0.56375  0.39406  1.0000
  C   C12       1.0  0.14453  0.57706  0.34805  1.0000
  H   H6        1.0  0.21080  0.57096  0.42882  1.0000
  H   H7        1.0  0.15022  0.54095  0.42698  1.0000
  N   N1        1.0  0.11067  0.56177  0.34392  1.0000
  C   C13       1.0  0.05236  0.52477  0.37269  1.0000
  C   C14       1.0  0.02833  0.50452  0.43967  1.0000
  H   H8        1.0  0.03650  0.49911  0.49906  1.0000
  C   C15       1.0  0.08680  0.53650  0.38743  1.0000
  H   H9        1.0  0.09311  0.52529  0.43557  1.0000
  C   C16       1.0  0.41491  0.60995  0.34851  1.0000
  C   C17       1.0  0.41757  0.81053  0.34858  1.0000
  C   C18       1.0  0.42192  0.56313  0.29224  1.0000
  C   C19       1.0  0.40412  0.58113  0.29236  1.0000
  H   H10       1.0  0.41353  0.54231  0.25101  1.0000
  H   H11       1.0  0.38328  0.57292  0.25114  1.0000
  C   C20       1.0  0.36823  0.71371  0.35066  1.0000
  C   C21       1.0  0.36740  0.65931  0.35062  1.0000
  C   C22       1.0  0.38563  0.69520  0.35056  1.0000
  H   H12       1.0  0.41172  0.70794  0.35017  1.0000
  C   C23       1.0  0.40076  0.77731  0.34910  1.0000
  C   C24       1.0  0.38523  0.74693  0.34991  1.0000
  C   C25       1.0  0.39850  0.62677  0.34903  1.0000
  C   C26       1.0  0.38363  0.64229  0.34986  1.0000
  C   C27       1.0  0.40683  0.82890  0.40348  1.0000
  C   C28       1.0  0.42491  0.86466  0.40306  1.0000
  H   H13       1.0  0.38581  0.81655  0.44421  1.0000
  H   H14       1.0  0.41629  0.87707  0.44331  1.0000
  C   C29       1.0  0.45075  0.57332  0.34801  1.0000
  C   C30       1.0  0.45417  0.88297  0.34802  1.0000
  C   C31       1.0  0.46459  0.86434  0.29299  1.0000
  C   C32       1.0  0.44660  0.82855  0.29315  1.0000
  H   H15       1.0  0.48557  0.87677  0.25228  1.0000
  H   H16       1.0  0.45498  0.81593  0.25248  1.0000
  N   N2        1.0  0.46609  0.55478  0.34401  1.0000
  N   N3        1.0  0.47270  0.91684  0.34401  1.0000
  C   C33       1.0  0.50811  0.49105  0.28085  1.0000
  C   C34       1.0  0.49556  0.51348  0.29346  1.0000
  H   H17       1.0  0.50222  0.47744  0.22145  1.0000
  H   H18       1.0  0.48122  0.51550  0.24276  1.0000
  C   C35       1.0  0.51395  0.98758  0.29339  1.0000
  H   H19       1.0  0.51195  0.97123  0.24270  1.0000
  C   C36       1.0  0.44379  0.62045  0.40417  1.0000
  C   C37       1.0  0.46147  0.60236  0.40379  1.0000
  H   H20       1.0  0.48232  0.61081  0.44464  1.0000
  H   H21       1.0  0.45229  0.64131  0.44547  1.0000
  C   C38       1.0  0.50250  0.53280  0.37421  1.0000
  C   C39       1.0  0.49064  0.55538  0.38939  1.0000
  H   H22       1.0  0.50128  0.57229  0.43916  1.0000
  C   C40       1.0  0.49460  0.97521  0.37409  1.0000
  C   C41       1.0  0.49843  0.99927  0.44106  1.0000
  H   H23       1.0  0.48491  0.99113  0.50056  1.0000
  O   O1        1.0  0.49719  0.05680  0.51621  1.0000
  C   C42       1.0  0.47202  0.94077  0.38923  1.0000
  H   H24       1.0  0.45505  0.93450  0.43886  1.0000
  C   C43       1.0  0.81600  0.40988  0.35374  1.0000
  C   C44       1.0  0.61756  0.41165  0.35256  1.0000
  C   C45       1.0  0.61570  0.21135  0.35268  1.0000
  C   C46       1.0  0.58230  0.44883  0.35445  1.0000
  C   C47       1.0  0.61727  0.46486  0.37532  1.0000
  C   C48       1.0  0.63482  0.44661  0.37406  1.0000
  C   C49       1.0  0.86959  0.41172  0.38835  1.0000
  C   C50       1.0  0.83379  0.39409  0.38740  1.0000
  C   C51       1.0  0.57857  0.13893  0.35466  1.0000
  C   C52       1.0  0.56262  0.15786  0.37663  1.0000
  C   C53       1.0  0.58085  0.19364  0.37538  1.0000
  H   H25       1.0  0.63033  0.49011  0.39168  1.0000
  H   H26       1.0  0.66019  0.45912  0.38942  1.0000
  H   H27       1.0  0.82100  0.36972  0.41172  1.0000
  H   H28       1.0  0.88184  0.39972  0.41346  1.0000
  H   H29       1.0  0.53744  0.14566  0.39384  1.0000
  H   H30       1.0  0.56839  0.20649  0.39158  1.0000
  C   C54       1.0  0.66496  0.30823  0.35136  1.0000
  C   C55       1.0  0.70087  0.32621  0.35159  1.0000
  C   C56       1.0  0.71909  0.36212  0.35169  1.0000
  C   C57       1.0  0.70109  0.38003  0.35155  1.0000
  C   C58       1.0  0.66518  0.36236  0.35132  1.0000
  C   C59       1.0  0.64727  0.32645  0.35124  1.0000
  H   H31       1.0  0.71422  0.40612  0.35174  1.0000
  H   H32       1.0  0.71384  0.31308  0.35181  1.0000
  H   H33       1.0  0.62118  0.31350  0.35119  1.0000
  C   C60       1.0  0.63274  0.24458  0.35203  1.0000
  C   C61       1.0  0.64820  0.27497  0.35160  1.0000
  C   C62       1.0  0.63375  0.39460  0.35192  1.0000
  C   C63       1.0  0.64868  0.37912  0.35152  1.0000
  C   C64       1.0  0.75236  0.37862  0.35225  1.0000
  C   C65       1.0  0.78276  0.39359  0.35293  1.0000
  N   N4        1.0  0.56737  0.46767  0.35963  1.0000
  N   N5        1.0  0.55975  0.10517  0.35977  1.0000
  C   C66       1.0  0.52825  0.48711  0.34806  1.0000
  C   C67       1.0  0.53839  0.46317  0.33324  1.0000
  H   H34       1.0  0.52267  0.44204  0.29980  1.0000
  C   C68       1.0  0.54027  0.04662  0.34799  1.0000
  C   C69       1.0  0.53638  0.02255  0.28079  1.0000
  H   H35       1.0  0.55000  0.03027  0.22143  1.0000
  C   C70       1.0  0.56422  0.08070  0.33315  1.0000
  H   H36       1.0  0.58532  0.08610  0.29956  1.0000
  C   C71       1.0  0.98091  0.49907  0.34677  1.0000
  C   C72       1.0  0.00499  0.51923  0.27958  1.0000
  H   H37       1.0  0.99727  0.52513  0.22019  1.0000
  C   C73       1.0  0.94680  0.48887  0.33165  1.0000
  H   H38       1.0  0.94143  0.50421  0.29616  1.0000
  C   C74       1.0  0.58251  0.39534  0.33251  1.0000
  C   C75       1.0  0.56510  0.41372  0.33366  1.0000
  C   C76       1.0  0.83465  0.44357  0.32130  1.0000
  C   C77       1.0  0.87043  0.46108  0.32231  1.0000
  C   C78       1.0  0.88845  0.44533  0.35544  1.0000
  C   C79       1.0  0.63195  0.19263  0.33143  1.0000
  C   C80       1.0  0.61359  0.15685  0.33261  1.0000
  H   H39       1.0  0.53965  0.40105  0.32022  1.0000
  H   H40       1.0  0.82247  0.45578  0.29692  1.0000
  H   H41       1.0  0.88311  0.48552  0.29917  1.0000
  H   H42       1.0  0.65726  0.20475  0.31543  1.0000
  H   H43       1.0  0.62621  0.14410  0.31824  1.0000
  H   H44       1.0  0.56923  0.36995  0.31741  1.0000
  N   N6        1.0  0.92224  0.46037  0.36039  1.0000
  C   C81       1.0  0.52271  0.52894  0.44120  1.0000
  C   C82       1.0  0.53550  0.50640  0.42970  1.0000
  H   H45       1.0  0.52807  0.54242  0.50074  1.0000
  N   N7        1.0  0.55475  0.50259  0.49987  1.0000
  O   O2        1.0  0.58145  0.53010  0.51646  1.0000
  O   O3        1.0  0.53791  0.49175  0.57222  1.0000
  C   C83       1.0  0.52095  0.03457  0.42957  1.0000
  N   N8        1.0  0.52472  0.05762  0.49973  1.0000
  O   O4        1.0  0.53555  0.05163  0.57213  1.0000
  C   C84       1.0  0.99301  0.49176  0.42828  1.0000
  N   N9        1.0  0.97000  0.47243  0.49844  1.0000
  O   O5        1.0  0.97083  0.44571  0.51463  1.0000
  O   O6        1.0  0.97600  0.48917  0.57097  1.0000
