data_image0
_chemical_formula_structural       C2HNC2HNC4HCN2CHC2HN2C2HN2C2HC3N2HC2NC2HNCHC2NC2HNCHC2NC2HNCHCNCNCNCNCNCNCNCNCNCNC2NC2HC2NC2HC2NC2HNCHC2HC3N2HC2HC3N2HC2HC3N2H
_chemical_formula_sum              "C72 H24 N36"
_cell_length_a       33.7124
_cell_length_b       33.7147
_cell_length_c       14.8553
_cell_angle_alpha    90
_cell_angle_beta     90
_cell_angle_gamma    120.007

_space_group_name_H-M_alt    "P 1"
_space_group_IT_number       1

loop_
  _space_group_symop_operation_xyz
  'x, y, z'

loop_
  _atom_site_type_symbol
  _atom_site_label
  _atom_site_symmetry_multiplicity
  _atom_site_fract_x
  _atom_site_fract_y
  _atom_site_fract_z
  _atom_site_occupancy
  C   C1        1.0  0.09881  0.05065  0.34260  1.0000
  C   C2        1.0  0.12367  0.06310  0.26102  1.0000
  H   H1        1.0  0.10678  0.05466  0.20058  1.0000
  N   N1        1.0  0.02704  0.04957  0.34259  1.0000
  C   C3        1.0  0.05057  0.02654  0.34260  1.0000
  C   C4        1.0  0.12365  0.06306  0.42420  1.0000
  H   H2        1.0  0.10708  0.05477  0.48486  1.0000
  N   N2        1.0  0.02703  0.97997  0.34259  1.0000
  C   C5        1.0  0.17194  0.08723  0.26229  1.0000
  C   C6        1.0  0.95635  0.05065  0.34262  1.0000
  C   C7        1.0  0.94390  0.06306  0.26105  1.0000
  C   C8        1.0  0.91977  0.08720  0.26232  1.0000
  H   H3        1.0  0.95234  0.05461  0.20060  1.0000
  C   C9        1.0  0.98047  0.02653  0.34261  1.0000
  N   N3        1.0  0.17023  0.08635  0.42330  1.0000
  N   N4        1.0  0.92066  0.08637  0.42333  1.0000
  C   C10       1.0  0.94395  0.06309  0.42422  1.0000
  H   H4        1.0  0.95225  0.05481  0.48488  1.0000
  C   C11       1.0  0.26693  0.13473  0.26214  1.0000
  C   C12       1.0  0.31520  0.15886  0.26069  1.0000
  H   H5        1.0  0.33204  0.16728  0.20018  1.0000
  N   N5        1.0  0.19698  0.09976  0.18519  1.0000
  N   N6        1.0  0.24184  0.12219  0.18511  1.0000
  C   C13       1.0  0.87228  0.13468  0.26218  1.0000
  C   C14       1.0  0.84815  0.15881  0.26074  1.0000
  H   H6        1.0  0.83972  0.16722  0.20023  1.0000
  N   N7        1.0  0.90724  0.09970  0.18522  1.0000
  N   N8        1.0  0.88481  0.12212  0.18515  1.0000
  C   C15       1.0  0.87232  0.74008  0.26219  1.0000
  C   C16       1.0  0.84820  0.69181  0.26076  1.0000
  H   H7        1.0  0.83980  0.67498  0.20025  1.0000
  C   C17       1.0  0.95634  0.90820  0.34262  1.0000
  C   C18       1.0  0.94393  0.88333  0.26105  1.0000
  C   C19       1.0  0.91980  0.83506  0.26232  1.0000
  N   N9        1.0  0.90731  0.81003  0.18523  1.0000
  N   N10       1.0  0.88488  0.76516  0.18516  1.0000
  H   H8        1.0  0.95240  0.90022  0.20060  1.0000
  C   C20       1.0  0.69357  0.17469  0.34351  1.0000
  C   C21       1.0  0.66967  0.16973  0.26233  1.0000
  N   N11       1.0  0.62734  0.16530  0.26383  1.0000
  C   C22       1.0  0.60550  0.16458  0.34130  1.0000
  C   C23       1.0  0.56363  0.16456  0.34138  1.0000
  H   H9        1.0  0.68521  0.17322  0.20138  1.0000
  N   N12       1.0  0.54246  0.16527  0.26399  1.0000
  C   C24       1.0  0.50453  0.16964  0.26261  1.0000
  H   H10       1.0  0.49251  0.17321  0.20167  1.0000
  C   C25       1.0  0.83238  0.52141  0.34351  1.0000
  C   C26       1.0  0.83747  0.50253  0.26238  1.0000
  N   N13       1.0  0.84184  0.46459  0.26387  1.0000
  C   C27       1.0  0.84250  0.44343  0.34130  1.0000
  C   C28       1.0  0.84252  0.40157  0.34134  1.0000
  H   H11       1.0  0.83393  0.51452  0.20141  1.0000
  N   N14       1.0  0.84183  0.37971  0.26396  1.0000
  C   C29       1.0  0.83740  0.33739  0.26259  1.0000
  H   H12       1.0  0.83392  0.32186  0.20162  1.0000
  C   C30       1.0  0.48568  0.31344  0.34369  1.0000
  C   C31       1.0  0.50461  0.33732  0.26247  1.0000
  N   N15       1.0  0.54248  0.37967  0.26391  1.0000
  C   C32       1.0  0.56362  0.40153  0.34134  1.0000
  C   C33       1.0  0.60548  0.44342  0.34133  1.0000
  H   H13       1.0  0.49251  0.32181  0.20150  1.0000
  N   N16       1.0  0.62733  0.46456  0.26389  1.0000
  C   C34       1.0  0.66966  0.50246  0.26242  1.0000
  H   H14       1.0  0.68519  0.51449  0.20146  1.0000
  C   C35       1.0  0.98046  0.95643  0.34261  1.0000
  N   N17       1.0  0.95742  0.97997  0.34261  1.0000
  C   C36       1.0  0.45839  0.26545  0.34187  1.0000
  N   N18       1.0  0.41182  0.24213  0.34194  1.0000
  C   C37       1.0  0.38838  0.19542  0.34185  1.0000
  N   N19       1.0  0.41179  0.17213  0.34202  1.0000
  C   C38       1.0  0.45836  0.19535  0.34196  1.0000
  N   N20       1.0  0.48096  0.24169  0.34228  1.0000
  C   C39       1.0  0.74156  0.19539  0.34190  1.0000
  N   N21       1.0  0.76488  0.17215  0.34195  1.0000
  C   C40       1.0  0.81160  0.19542  0.34191  1.0000
  N   N22       1.0  0.83490  0.24213  0.34207  1.0000
  C   C41       1.0  0.81168  0.26548  0.34197  1.0000
  N   N23       1.0  0.76534  0.24173  0.34224  1.0000
  C   C42       1.0  0.81166  0.54867  0.34198  1.0000
  N   N24       1.0  0.83488  0.59523  0.34201  1.0000
  C   C43       1.0  0.81159  0.61865  0.34194  1.0000
  N   N25       1.0  0.76488  0.59521  0.34207  1.0000
  C   C44       1.0  0.74155  0.54865  0.34203  1.0000
  N   N26       1.0  0.76531  0.52607  0.34228  1.0000
  C   C45       1.0  0.34014  0.17131  0.34216  1.0000
  C   C46       1.0  0.31538  0.15892  0.42387  1.0000
  N   N27       1.0  0.26880  0.13563  0.42314  1.0000
  C   C47       1.0  0.24368  0.12308  0.34601  1.0000
  C   C48       1.0  0.19528  0.09889  0.34609  1.0000
  H   H15       1.0  0.33201  0.16722  0.48447  1.0000
  C   C49       1.0  0.83570  0.17130  0.34221  1.0000
  C   C50       1.0  0.84810  0.15894  0.42392  1.0000
  N   N28       1.0  0.87139  0.13565  0.42319  1.0000
  C   C51       1.0  0.88393  0.12308  0.34605  1.0000
  C   C52       1.0  0.90812  0.09888  0.34611  1.0000
  H   H16       1.0  0.83981  0.16727  0.48451  1.0000
  C   C53       1.0  0.83570  0.66688  0.34223  1.0000
  C   C54       1.0  0.84805  0.69164  0.42393  1.0000
  N   N29       1.0  0.87133  0.73822  0.42320  1.0000
  C   C55       1.0  0.88391  0.76334  0.34606  1.0000
  C   C56       1.0  0.90811  0.81173  0.34613  1.0000
  H   H17       1.0  0.83971  0.67502  0.48453  1.0000
  N   N30       1.0  0.92061  0.83679  0.42334  1.0000
  C   C57       1.0  0.94389  0.88336  0.42423  1.0000
  H   H18       1.0  0.95215  0.89993  0.48488  1.0000
  C   C58       1.0  0.62764  0.16856  0.42475  1.0000
  C   C59       1.0  0.67169  0.17359  0.42538  1.0000
  H   H19       1.0  0.68924  0.18051  0.48499  1.0000
  C   C60       1.0  0.48562  0.17464  0.34385  1.0000
  C   C61       1.0  0.50648  0.17353  0.42561  1.0000
  C   C62       1.0  0.54549  0.16849  0.42489  1.0000
  N   N31       1.0  0.56868  0.17153  0.50173  1.0000
  N   N32       1.0  0.60752  0.17156  0.50168  1.0000
  H   H20       1.0  0.49590  0.18048  0.48523  1.0000
  C   C63       1.0  0.83843  0.46153  0.42474  1.0000
  C   C64       1.0  0.83335  0.50051  0.42535  1.0000
  H   H21       1.0  0.82643  0.51111  0.48499  1.0000
  C   C65       1.0  0.83240  0.31345  0.34378  1.0000
  C   C66       1.0  0.83352  0.33543  0.42554  1.0000
  C   C67       1.0  0.83848  0.37945  0.42482  1.0000
  N   N33       1.0  0.83540  0.39956  0.50168  1.0000
  N   N34       1.0  0.83537  0.43837  0.50165  1.0000
  H   H22       1.0  0.82643  0.31788  0.48516  1.0000
  C   C68       1.0  0.54549  0.37940  0.42482  1.0000
  C   C69       1.0  0.50645  0.33537  0.42553  1.0000
  H   H23       1.0  0.49595  0.31780  0.48513  1.0000
  C   C70       1.0  0.69356  0.52136  0.34362  1.0000
  C   C71       1.0  0.67165  0.50058  0.42548  1.0000
  C   C72       1.0  0.62762  0.46154  0.42480  1.0000
  N   N35       1.0  0.60751  0.43836  0.50168  1.0000
  N   N36       1.0  0.56868  0.39952  0.50169  1.0000
  H   H24       1.0  0.68922  0.51108  0.48509  1.0000
