data_image0
_chemical_formula_structural       C12H6C6H3C9H3C5H6C9H8C8H8C8H8C5H6C13H6C6H3C9H3C3NC3NC5NC5NC20H18N4C3NC3NC5NC5NC20H18N4C3NC3NC5NC5NC20H18N4
_chemical_formula_sum              "C198 H114 N24"
_cell_length_a       48.475
_cell_length_b       48.4292
_cell_length_c       14.8935
_cell_angle_alpha    89.9596
_cell_angle_beta     90.0402
_cell_angle_gamma    119.792

_space_group_name_H-M_alt    "P 1"
_space_group_IT_number       1

loop_
  _space_group_symop_operation_xyz
  'x, y, z'

loop_
  _atom_site_type_symbol
  _atom_site_label
  _atom_site_symmetry_multiplicity
  _atom_site_fract_x
  _atom_site_fract_y
  _atom_site_fract_z
  _atom_site_occupancy
  C   C1        1.0  0.30489  0.54943  0.34487  1.0000
  C   C2        1.0  0.46025  0.75657  0.34554  1.0000
  C   C3        1.0  0.25328  0.70490  0.34491  1.0000
  C   C4        1.0  0.52618  0.80214  0.32711  1.0000
  C   C5        1.0  0.51375  0.77050  0.29617  1.0000
  C   C6        1.0  0.48127  0.74796  0.30543  1.0000
  C   C7        1.0  0.28371  0.48319  0.32614  1.0000
  C   C8        1.0  0.26533  0.49634  0.29305  1.0000
  C   C9        1.0  0.27568  0.52898  0.30241  1.0000
  C   C10       1.0  0.20756  0.72535  0.32615  1.0000
  C   C11       1.0  0.23893  0.74406  0.29310  1.0000
  C   C12       1.0  0.26154  0.73407  0.30250  1.0000
  H   H1        1.0  0.52825  0.76353  0.26580  1.0000
  H   H2        1.0  0.47317  0.72539  0.28146  1.0000
  H   H3        1.0  0.26178  0.53760  0.27689  1.0000
  H   H4        1.0  0.24418  0.48226  0.26101  1.0000
  H   H5        1.0  0.24563  0.76518  0.26108  1.0000
  H   H6        1.0  0.28391  0.74818  0.27699  1.0000
  C   C13       1.0  0.31588  0.67919  0.35506  1.0000
  C   C14       1.0  0.30733  0.64671  0.35493  1.0000
  C   C15       1.0  0.33099  0.63773  0.35505  1.0000
  C   C16       1.0  0.36341  0.66155  0.35501  1.0000
  C   C17       1.0  0.37226  0.69412  0.35513  1.0000
  C   C18       1.0  0.34838  0.70278  0.35501  1.0000
  H   H7        1.0  0.38068  0.65512  0.35452  1.0000
  H   H8        1.0  0.28374  0.62949  0.35437  1.0000
  H   H9        1.0  0.35471  0.72643  0.35453  1.0000
  C   C19       1.0  0.27418  0.69538  0.35086  1.0000
  C   C20       1.0  0.29390  0.68739  0.35374  1.0000
  C   C21       1.0  0.42992  0.73572  0.35123  1.0000
  C   C22       1.0  0.40233  0.71604  0.35394  1.0000
  C   C23       1.0  0.32284  0.60759  0.35373  1.0000
  C   C24       1.0  0.31472  0.57988  0.35084  1.0000
  C   C25       1.0  0.18544  0.73525  0.31180  1.0000
  C   C26       1.0  0.27346  0.45113  0.31177  1.0000
  C   C27       1.0  0.55809  0.82416  0.31281  1.0000
  H   H10       1.0  0.56897  0.82079  0.26080  1.0000
  H   H11       1.0  0.25956  0.44054  0.25902  1.0000
  H   H12       1.0  0.18856  0.74925  0.25931  1.0000
  C   C28       1.0  0.79161  0.46919  0.35695  1.0000
  C   C29       1.0  0.53950  0.32509  0.35531  1.0000
  C   C30       1.0  0.50658  0.31393  0.34875  1.0000
  C   C31       1.0  0.68425  0.21769  0.35476  1.0000
  C   C32       1.0  0.69523  0.19572  0.34811  1.0000
  H   H13       1.0  0.83742  0.50918  0.34959  1.0000
  H   H14       1.0  0.55484  0.34913  0.35846  1.0000
  H   H15       1.0  0.49897  0.33021  0.34651  1.0000
  H   H16       1.0  0.66025  0.20928  0.35772  1.0000
  H   H17       1.0  0.67889  0.17195  0.34577  1.0000
  H   H18       1.0  0.79993  0.45349  0.36179  1.0000
  C   C33       1.0  0.81368  0.50199  0.35016  1.0000
  C   C34       1.0  0.10258  0.74882  0.28283  1.0000
  C   C35       1.0  0.12696  0.74105  0.28148  1.0000
  C   C36       1.0  0.90546  0.65287  0.28444  1.0000
  C   C37       1.0  0.88126  0.62075  0.28489  1.0000
  C   C38       1.0  0.89233  0.82980  0.26763  1.0000
  C   C39       1.0  0.91224  0.81639  0.27211  1.0000
  C   C40       1.0  0.10039  0.91303  0.29754  1.0000
  C   C41       1.0  0.12010  0.94628  0.30279  1.0000
  H   H19       1.0  0.12806  0.95906  0.24459  1.0000
  H   H20       1.0  0.09430  0.90242  0.23575  1.0000
  H   H21       1.0  0.92020  0.81164  0.21368  1.0000
  H   H22       1.0  0.88606  0.83428  0.20593  1.0000
  H   H23       1.0  0.90983  0.66581  0.22657  1.0000
  H   H24       1.0  0.86883  0.61103  0.22701  1.0000
  H   H25       1.0  0.13568  0.73909  0.22080  1.0000
  H   H26       1.0  0.09441  0.75265  0.22335  1.0000
  C   C42       1.0  0.25889  0.35431  0.28279  1.0000
  C   C43       1.0  0.26687  0.38650  0.28148  1.0000
  C   C44       1.0  0.35545  0.25309  0.28505  1.0000
  C   C45       1.0  0.38769  0.26129  0.28559  1.0000
  C   C46       1.0  0.17907  0.06356  0.26769  1.0000
  C   C47       1.0  0.19244  0.09682  0.27224  1.0000
  C   C48       1.0  0.09500  0.18823  0.29747  1.0000
  C   C49       1.0  0.06175  0.17461  0.30280  1.0000
  H   H27       1.0  0.04894  0.16977  0.24464  1.0000
  H   H28       1.0  0.10558  0.19269  0.23565  1.0000
  H   H29       1.0  0.19735  0.10956  0.21382  1.0000
  H   H30       1.0  0.17473  0.05291  0.20595  1.0000
  H   H31       1.0  0.34257  0.24445  0.22718  1.0000
  H   H32       1.0  0.39753  0.25867  0.22780  1.0000
  H   H33       1.0  0.26896  0.39725  0.22081  1.0000
  H   H34       1.0  0.25508  0.34237  0.22328  1.0000
  C   C50       1.0  0.65409  0.90687  0.28305  1.0000
  C   C51       1.0  0.62204  0.88256  0.28183  1.0000
  C   C52       1.0  0.75517  0.10427  0.28477  1.0000
  C   C53       1.0  0.74710  0.12847  0.28526  1.0000
  C   C54       1.0  0.94458  0.11607  0.26781  1.0000
  C   C55       1.0  0.91137  0.09634  0.27241  1.0000
  C   C56       1.0  0.82012  0.90839  0.29773  1.0000
  C   C57       1.0  0.83367  0.88859  0.30294  1.0000
  H   H35       1.0  0.83869  0.88079  0.24472  1.0000
  H   H36       1.0  0.81577  0.91469  0.23593  1.0000
  H   H37       1.0  0.89866  0.08838  0.21402  1.0000
  H   H38       1.0  0.95524  0.12220  0.20608  1.0000
  H   H39       1.0  0.76370  0.09988  0.22687  1.0000
  H   H40       1.0  0.74970  0.14091  0.22739  1.0000
  H   H41       1.0  0.61137  0.87377  0.22122  1.0000
  H   H42       1.0  0.66602  0.91489  0.22353  1.0000
  C   C58       1.0  0.47237  0.78802  0.37698  1.0000
  C   C59       1.0  0.32339  0.53659  0.37851  1.0000
  C   C60       1.0  0.31289  0.50386  0.36925  1.0000
  C   C61       1.0  0.22212  0.68608  0.37852  1.0000
  C   C62       1.0  0.19957  0.69623  0.36927  1.0000
  H   H43       1.0  0.51289  0.83325  0.38978  1.0000
  H   H44       1.0  0.34482  0.55091  0.40900  1.0000
  H   H45       1.0  0.32712  0.49539  0.39281  1.0000
  H   H46       1.0  0.21538  0.66467  0.40894  1.0000
  H   H47       1.0  0.17701  0.68176  0.39273  1.0000
  H   H48       1.0  0.45762  0.79501  0.40571  1.0000
  C   C63       1.0  0.50495  0.81049  0.36795  1.0000
  C   C64       1.0  0.55109  0.30347  0.35579  1.0000
  C   C65       1.0  0.75861  0.45817  0.35523  1.0000
  C   C66       1.0  0.70597  0.25074  0.35552  1.0000
  C   C67       1.0  0.80334  0.52455  0.34129  1.0000
  C   C68       1.0  0.77021  0.51324  0.34011  1.0000
  C   C69       1.0  0.74811  0.48053  0.34730  1.0000
  C   C70       1.0  0.48450  0.28097  0.34217  1.0000
  C   C71       1.0  0.49638  0.25953  0.34310  1.0000
  C   C72       1.0  0.52920  0.27056  0.35019  1.0000
  C   C73       1.0  0.72815  0.20622  0.34187  1.0000
  C   C74       1.0  0.74970  0.23939  0.34307  1.0000
  C   C75       1.0  0.73883  0.26139  0.35015  1.0000
  H   H49       1.0  0.76177  0.52877  0.33321  1.0000
  H   H50       1.0  0.72433  0.47329  0.34532  1.0000
  H   H51       1.0  0.53686  0.25428  0.34969  1.0000
  H   H52       1.0  0.48120  0.23552  0.33778  1.0000
  H   H53       1.0  0.77367  0.24794  0.33803  1.0000
  H   H54       1.0  0.75519  0.28521  0.34994  1.0000
  C   C76       1.0  0.68025  0.31346  0.36067  1.0000
  C   C77       1.0  0.64792  0.30533  0.36065  1.0000
  C   C78       1.0  0.63934  0.32930  0.36073  1.0000
  C   C79       1.0  0.66343  0.36164  0.36063  1.0000
  C   C80       1.0  0.69588  0.37010  0.36065  1.0000
  C   C81       1.0  0.70412  0.34590  0.36057  1.0000
  H   H55       1.0  0.65730  0.37913  0.36042  1.0000
  H   H56       1.0  0.63051  0.28179  0.36046  1.0000
  H   H57       1.0  0.72766  0.35194  0.36032  1.0000
  C   C82       1.0  0.69608  0.27143  0.35871  1.0000
  C   C83       1.0  0.68813  0.29121  0.36011  1.0000
  C   C84       1.0  0.73785  0.42773  0.35858  1.0000
  C   C85       1.0  0.71806  0.40013  0.36005  1.0000
  C   C86       1.0  0.60930  0.32150  0.36024  1.0000
  C   C87       1.0  0.58163  0.31351  0.35891  1.0000
  C   C88       1.0  0.73956  0.18524  0.32952  1.0000
  C   C89       1.0  0.45215  0.26939  0.32971  1.0000
  C   C90       1.0  0.82446  0.55682  0.32887  1.0000
  H   H58       1.0  0.81758  0.56916  0.29057  1.0000
  H   H59       1.0  0.44013  0.25010  0.29174  1.0000
  H   H60       1.0  0.75885  0.19229  0.29169  1.0000
  C   C91       1.0  0.10570  0.84581  0.37710  1.0000
  C   C92       1.0  0.10599  0.81743  0.37554  1.0000
  C   C93       1.0  0.07458  0.79251  0.36990  1.0000
  N   N1        1.0  0.05652  0.80670  0.36798  1.0000
  C   C94       1.0  0.07413  0.83889  0.37208  1.0000
  C   C95       1.0  0.06411  0.86195  0.37080  1.0000
  C   C96       1.0  0.03194  0.85474  0.36594  1.0000
  N   N2        1.0  0.00549  0.82575  0.36496  1.0000
  C   C97       1.0  0.97876  0.82786  0.36035  1.0000
  C   C98       1.0  0.98873  0.86033  0.35811  1.0000
  C   C99       1.0  0.02147  0.87688  0.36194  1.0000
  C   C100      1.0  0.94673  0.80263  0.35961  1.0000
  C   C101      1.0  0.93721  0.76973  0.36240  1.0000
  N   N3        1.0  0.95522  0.75545  0.36054  1.0000
  C   C102      1.0  0.93755  0.72325  0.36422  1.0000
  C   C103      1.0  0.90601  0.71655  0.36939  1.0000
  C   C104      1.0  0.90579  0.74496  0.36766  1.0000
  C   C105      1.0  0.94745  0.70003  0.36287  1.0000
  C   C106      1.0  0.97971  0.70731  0.36172  1.0000
  N   N4        1.0  0.00619  0.73630  0.36551  1.0000
  C   C107      1.0  0.03307  0.73434  0.36322  1.0000
  C   C108      1.0  0.02316  0.70194  0.35768  1.0000
  C   C109      1.0  0.99034  0.68532  0.35660  1.0000
  C   C110      1.0  0.06509  0.75959  0.36634  1.0000
  C   C111      1.0  0.08951  0.75129  0.36514  1.0000
  C   C112      1.0  0.13905  0.73577  0.36233  1.0000
  C   C113      1.0  0.12549  0.73770  0.44431  1.0000
  C   C114      1.0  0.10113  0.74555  0.44593  1.0000
  C   C115      1.0  0.92337  0.66720  0.36280  1.0000
  C   C116      1.0  0.87434  0.60206  0.36364  1.0000
  C   C117      1.0  0.89280  0.61620  0.44114  1.0000
  C   C118      1.0  0.91680  0.64843  0.44113  1.0000
  C   C119      1.0  0.92270  0.81141  0.35598  1.0000
  C   C120      1.0  0.91236  0.81950  0.43528  1.0000
  C   C121      1.0  0.89246  0.83293  0.43059  1.0000
  C   C122      1.0  0.88253  0.83860  0.34653  1.0000
  C   C123      1.0  0.08768  0.89477  0.37634  1.0000
  C   C124      1.0  0.09549  0.91032  0.46042  1.0000
  C   C125      1.0  0.12743  0.96197  0.38686  1.0000
  C   C126      1.0  0.11517  0.94356  0.46545  1.0000
  H   H61       1.0  0.11958  0.95436  0.52697  1.0000
  H   H62       1.0  0.08582  0.89774  0.51822  1.0000
  H   H63       1.0  0.12557  0.86778  0.38072  1.0000
  H   H64       1.0  0.12614  0.81569  0.37816  1.0000
  H   H65       1.0  0.03376  0.79520  0.36273  1.0000
  H   H66       1.0  0.97795  0.76689  0.35417  1.0000
  H   H67       1.0  0.03505  0.90113  0.36158  1.0000
  H   H68       1.0  0.97484  0.87071  0.35514  1.0000
  H   H69       1.0  0.92046  0.81707  0.49664  1.0000
  H   H70       1.0  0.88634  0.83973  0.48881  1.0000
  H   H71       1.0  0.88573  0.74684  0.37085  1.0000
  H   H72       1.0  0.88605  0.69468  0.37379  1.0000
  H   H73       1.0  0.03719  0.69172  0.35452  1.0000
  H   H74       1.0  0.97679  0.66113  0.35213  1.0000
  H   H75       1.0  0.92942  0.65815  0.49882  1.0000
  H   H76       1.0  0.88849  0.60321  0.49889  1.0000
  H   H77       1.0  0.09200  0.74713  0.50641  1.0000
  H   H78       1.0  0.13356  0.73377  0.50380  1.0000
  N   N5        1.0  0.85177  0.57150  0.36782  1.0000
  N   N6        1.0  0.86635  0.85389  0.33690  1.0000
  N   N7        1.0  0.14342  0.99336  0.39624  1.0000
  N   N8        1.0  0.16201  0.72819  0.36537  1.0000
  C   C127      1.0  0.16202  0.26064  0.37728  1.0000
  C   C128      1.0  0.19029  0.28920  0.37571  1.0000
  C   C129      1.0  0.21529  0.28269  0.36988  1.0000
  N   N9        1.0  0.20124  0.25051  0.36787  1.0000
  C   C130      1.0  0.16907  0.23601  0.37205  1.0000
  C   C131      1.0  0.14615  0.20303  0.37062  1.0000
  C   C132      1.0  0.15352  0.17811  0.36569  1.0000
  N   N10       1.0  0.18255  0.18058  0.36486  1.0000
  C   C133      1.0  0.18059  0.15179  0.36017  1.0000
  C   C134      1.0  0.14817  0.12941  0.35781  1.0000
  C   C135      1.0  0.13151  0.14560  0.36159  1.0000
  C   C136      1.0  0.20588  0.14493  0.35959  1.0000
  C   C137      1.0  0.23871  0.16821  0.36245  1.0000
  N   N11       1.0  0.25285  0.20042  0.36047  1.0000
  C   C138      1.0  0.28502  0.21487  0.36431  1.0000
  C   C139      1.0  0.29187  0.19006  0.36968  1.0000
  C   C140      1.0  0.26357  0.16154  0.36791  1.0000
  C   C141      1.0  0.30810  0.24789  0.36299  1.0000
  C   C142      1.0  0.30067  0.27284  0.36163  1.0000
  N   N12       1.0  0.27165  0.27040  0.36543  1.0000
  C   C143      1.0  0.27345  0.29918  0.36298  1.0000
  C   C144      1.0  0.30579  0.32157  0.35732  1.0000
  C   C145      1.0  0.32252  0.30536  0.35629  1.0000
  C   C146      1.0  0.24814  0.30601  0.36617  1.0000
  C   C147      1.0  0.25633  0.33868  0.36506  1.0000
  C   C148      1.0  0.27227  0.40382  0.36236  1.0000
  C   C149      1.0  0.27019  0.38823  0.44431  1.0000
  C   C150      1.0  0.26214  0.35599  0.44587  1.0000
  C   C151      1.0  0.34097  0.25662  0.36322  1.0000
  C   C152      1.0  0.40633  0.27328  0.36424  1.0000
  C   C153      1.0  0.39202  0.27751  0.44158  1.0000
  C   C154      1.0  0.35968  0.26900  0.44149  1.0000
  C   C155      1.0  0.19724  0.11218  0.35609  1.0000
  C   C156      1.0  0.18888  0.09369  0.43531  1.0000
  C   C157      1.0  0.17549  0.06043  0.43056  1.0000
  C   C158      1.0  0.17002  0.04492  0.34651  1.0000
  C   C159      1.0  0.11331  0.19383  0.37622  1.0000
  C   C160      1.0  0.09780  0.18612  0.46035  1.0000
  C   C161      1.0  0.04611  0.16632  0.38693  1.0000
  C   C162      1.0  0.06457  0.17257  0.46548  1.0000
  H   H79       1.0  0.05382  0.16622  0.52705  1.0000
  H   H80       1.0  0.11043  0.18910  0.51814  1.0000
  H   H81       1.0  0.14001  0.25857  0.38097  1.0000
  H   H82       1.0  0.19193  0.31105  0.37841  1.0000
  H   H83       1.0  0.21281  0.23926  0.36222  1.0000
  H   H84       1.0  0.24134  0.21172  0.35393  1.0000
  H   H85       1.0  0.10728  0.13499  0.36108  1.0000
  H   H86       1.0  0.13790  0.10520  0.35468  1.0000
  H   H87       1.0  0.19120  0.10415  0.49665  1.0000
  H   H88       1.0  0.16854  0.04750  0.48872  1.0000
  H   H89       1.0  0.26179  0.13963  0.37125  1.0000
  H   H90       1.0  0.31378  0.19194  0.37424  1.0000
  H   H91       1.0  0.31591  0.34576  0.35405  1.0000
  H   H92       1.0  0.34670  0.31595  0.35180  1.0000
  H   H93       1.0  0.34986  0.27191  0.49901  1.0000
  H   H94       1.0  0.40498  0.28638  0.49923  1.0000
  H   H95       1.0  0.26055  0.34523  0.50633  1.0000
  H   H96       1.0  0.27423  0.40021  0.50382  1.0000
  N   N13       1.0  0.43704  0.28169  0.36839  1.0000
  N   N14       1.0  0.15477  0.01353  0.33676  1.0000
  N   N15       1.0  0.01474  0.15093  0.39641  1.0000
  N   N16       1.0  0.28016  0.43443  0.36544  1.0000
  C   C163      1.0  0.74761  0.90324  0.37749  1.0000
  C   C164      1.0  0.71907  0.90314  0.37579  1.0000
  C   C165      1.0  0.72557  0.93464  0.37013  1.0000
  N   N17       1.0  0.75772  0.95257  0.36837  1.0000
  C   C166      1.0  0.77221  0.93479  0.37246  1.0000
  C   C167      1.0  0.80516  0.94464  0.37116  1.0000
  C   C168      1.0  0.83008  0.97677  0.36640  1.0000
  N   N18       1.0  0.82764  0.00338  0.36538  1.0000
  C   C169      1.0  0.85642  0.03001  0.36089  1.0000
  C   C170      1.0  0.87878  0.01979  0.35885  1.0000
  C   C171      1.0  0.86256  0.98702  0.36263  1.0000
  C   C172      1.0  0.86329  0.06214  0.36001  1.0000
  C   C173      1.0  0.84002  0.07185  0.36267  1.0000
  N   N19       1.0  0.80784  0.05398  0.36084  1.0000
  C   C174      1.0  0.79340  0.07182  0.36439  1.0000
  C   C175      1.0  0.81817  0.10333  0.36955  1.0000
  C   C176      1.0  0.84668  0.10337  0.36780  1.0000
  C   C177      1.0  0.76040  0.06209  0.36301  1.0000
  C   C178      1.0  0.73545  0.02987  0.36176  1.0000
  N   N20       1.0  0.73786  0.00323  0.36557  1.0000
  C   C179      1.0  0.70909  0.97645  0.36320  1.0000
  C   C180      1.0  0.68674  0.98659  0.35757  1.0000
  C   C181      1.0  0.70296  0.01944  0.35648  1.0000
  C   C182      1.0  0.70225  0.94433  0.36635  1.0000
  C   C183      1.0  0.66962  0.92003  0.36525  1.0000
  C   C184      1.0  0.60478  0.87066  0.36274  1.0000
  C   C185      1.0  0.62025  0.88432  0.44461  1.0000
  C   C186      1.0  0.65235  0.90858  0.44608  1.0000
  C   C187      1.0  0.75170  0.08632  0.36310  1.0000
  C   C188      1.0  0.73530  0.13534  0.36401  1.0000
  C   C189      1.0  0.73111  0.11686  0.44149  1.0000
  C   C190      1.0  0.73951  0.09287  0.44146  1.0000
  C   C191      1.0  0.89602  0.08603  0.35633  1.0000
  C   C192      1.0  0.91447  0.09631  0.43556  1.0000
  C   C193      1.0  0.94769  0.11602  0.43075  1.0000
  C   C194      1.0  0.96319  0.12580  0.34665  1.0000
  C   C195      1.0  0.81431  0.92089  0.37659  1.0000
  C   C196      1.0  0.82179  0.91278  0.46072  1.0000
  C   C197      1.0  0.84178  0.88097  0.38709  1.0000
  C   C198      1.0  0.83532  0.89297  0.46575  1.0000
  H   H97       1.0  0.84155  0.88837  0.52733  1.0000
  H   H98       1.0  0.81867  0.92229  0.51859  1.0000
  H   H99       1.0  0.74968  0.88327  0.38090  1.0000
  H   H100      1.0  0.69725  0.88305  0.37822  1.0000
  H   H101      1.0  0.76897  0.97534  0.36278  1.0000
  H   H102      1.0  0.79654  0.03123  0.35433  1.0000
  H   H103      1.0  0.87315  0.97329  0.36235  1.0000
  H   H104      1.0  0.90296  0.03355  0.35593  1.0000
  H   H105      1.0  0.90401  0.08837  0.49697  1.0000
  H   H106      1.0  0.96060  0.12218  0.48896  1.0000
  H   H107      1.0  0.86856  0.12336  0.37106  1.0000
  H   H108      1.0  0.81629  0.12339  0.37388  1.0000
  H   H109      1.0  0.66257  0.97269  0.35431  1.0000
  H   H110      1.0  0.69240  0.03314  0.35200  1.0000
  H   H111      1.0  0.73666  0.08020  0.49909  1.0000
  H   H112      1.0  0.72241  0.12114  0.49923  1.0000
  H   H113      1.0  0.66305  0.91777  0.50651  1.0000
  H   H114      1.0  0.60831  0.87637  0.50414  1.0000
  N   N21       1.0  0.72708  0.15785  0.36812  1.0000
  N   N22       1.0  0.99455  0.14191  0.33694  1.0000
  N   N23       1.0  0.85721  0.86493  0.39651  1.0000
  N   N24       1.0  0.57434  0.84777  0.36588  1.0000
