data_image0
_chemical_formula_structural       C15H12C4HC3NHCO2HC4HC3NHCO2HC2NC2NC5NC3NC17H14CNC2H2CO2HCNC2H2CO2H
_chemical_formula_sum              "C68 H38 N8 O8"
_cell_length_a       25.6008
_cell_length_b       25.6008
_cell_length_c       14.9357
_cell_angle_alpha    90
_cell_angle_beta     90
_cell_angle_gamma    90

_space_group_name_H-M_alt    "P 1"
_space_group_IT_number       1

loop_
  _space_group_symop_operation_xyz
  'x, y, z'

loop_
  _atom_site_type_symbol
  _atom_site_label
  _atom_site_symmetry_multiplicity
  _atom_site_fract_x
  _atom_site_fract_y
  _atom_site_fract_z
  _atom_site_occupancy
  C   C1        1.0  0.89097  0.95347  0.33042  1.0000
  C   C2        1.0  0.05184  0.89010  0.33295  1.0000
  C   C3        1.0  0.00027  0.13905  0.33713  1.0000
  C   C4        1.0  0.95087  0.11386  0.33569  1.0000
  C   C5        1.0  0.86421  0.10031  0.33547  1.0000
  C   C6        1.0  0.90221  0.13855  0.33574  1.0000
  C   C7        1.0  0.72545  0.00104  0.25131  1.0000
  C   C8        1.0  0.78046  0.00147  0.25106  1.0000
  C   C9        1.0  0.00056  0.19478  0.33727  1.0000
  C   C10       1.0  0.00047  0.27772  0.25574  1.0000
  C   C11       1.0  0.00058  0.22273  0.25581  1.0000
  C   C12       1.0  0.22183  0.02054  0.25781  1.0000
  C   C13       1.0  0.27680  0.02142  0.25591  1.0000
  C   C14       1.0  0.01944  0.78110  0.25236  1.0000
  C   C15       1.0  0.01986  0.72611  0.25123  1.0000
  H   H1        1.0  0.03459  0.70808  0.19563  1.0000
  H   H2        1.0  0.03279  0.80096  0.19745  1.0000
  H   H3        1.0  0.89745  0.82783  0.31431  1.0000
  H   H4        1.0  0.20162  0.03339  0.20291  1.0000
  H   H5        1.0  0.29448  0.03596  0.19983  1.0000
  H   H6        1.0  0.10485  0.17658  0.35106  1.0000
  H   H7        1.0  0.82491  0.10736  0.33503  1.0000
  H   H8        1.0  0.89493  0.17779  0.33636  1.0000
  H   H9        1.0  0.00028  0.20323  0.19598  1.0000
  H   H10       1.0  0.99935  0.29655  0.19537  1.0000
  H   H11       1.0  0.79988  0.00139  0.19115  1.0000
  H   H12       1.0  0.70649  0.99982  0.19105  1.0000
  C   C16       1.0  0.00131  0.64013  0.32323  1.0000
  C   C17       1.0  0.99895  0.52884  0.32317  1.0000
  C   C18       1.0  0.99215  0.55621  0.24120  1.0000
  C   C19       1.0  0.99254  0.61158  0.24322  1.0000
  H   H13       1.0  0.98477  0.63139  0.18518  1.0000
  C   C20       1.0  0.99733  0.47343  0.33190  1.0000
  C   C21       1.0  0.99952  0.36248  0.33661  1.0000
  C   C22       1.0  0.02955  0.39188  0.27521  1.0000
  N   N1        1.0  0.02737  0.44476  0.27517  1.0000
  H   H14       1.0  0.05390  0.37406  0.23045  1.0000
  C   C23       1.0  0.98213  0.53030  0.16161  1.0000
  O   O1        1.0  0.01051  0.53979  0.09753  1.0000
  O   O2        1.0  0.93633  0.51721  0.14867  1.0000
  H   H15       1.0  0.92472  0.50382  0.09771  1.0000
  C   C24       1.0  0.36320  0.00287  0.32615  1.0000
  C   C25       1.0  0.47440  0.99971  0.32330  1.0000
  C   C26       1.0  0.44619  0.99157  0.24245  1.0000
  C   C27       1.0  0.39093  0.99279  0.24574  1.0000
  H   H16       1.0  0.37044  0.98462  0.18850  1.0000
  C   C28       1.0  0.52984  0.99795  0.33063  1.0000
  C   C29       1.0  0.64082  0.99977  0.33291  1.0000
  C   C30       1.0  0.61107  0.02973  0.27189  1.0000
  N   N2        1.0  0.55817  0.02776  0.27305  1.0000
  H   H17       1.0  0.62864  0.05398  0.22669  1.0000
  C   C31       1.0  0.46961  0.98050  0.16111  1.0000
  O   O3        1.0  0.47949  0.01809  0.11325  1.0000
  O   O4        1.0  0.49739  0.94109  0.15719  1.0000
  H   H18       1.0  0.51744  0.93314  0.11080  1.0000
  C   C32       1.0  0.90483  0.86684  0.32121  1.0000
  C   C33       1.0  0.86662  0.90486  0.32250  1.0000
  N   N3        1.0  0.94289  0.94302  0.33458  1.0000
  C   C34       1.0  0.95351  0.89115  0.32953  1.0000
  C   C35       1.0  0.00247  0.86461  0.33085  1.0000
  N   N4        1.0  0.06185  0.94201  0.33393  1.0000
  C   C36       1.0  0.11369  0.95237  0.33421  1.0000
  C   C37       1.0  0.13855  0.90380  0.33268  1.0000
  C   C38       1.0  0.10059  0.86558  0.33371  1.0000
  C   C39       1.0  0.13883  0.00192  0.33582  1.0000
  C   C40       1.0  0.11196  0.05066  0.33821  1.0000
  N   N5        1.0  0.05998  0.06088  0.33472  1.0000
  C   C41       1.0  0.04924  0.11274  0.33880  1.0000
  C   C42       1.0  0.09774  0.13742  0.34562  1.0000
  C   C43       1.0  0.13602  0.09948  0.34602  1.0000
  N   N6        1.0  0.94100  0.06199  0.33510  1.0000
  C   C44       1.0  0.88920  0.05180  0.33484  1.0000
  C   C45       1.0  0.86430  0.00226  0.33276  1.0000
  C   C46       1.0  0.80857  0.00165  0.33238  1.0000
  C   C47       1.0  0.78055  0.00155  0.41376  1.0000
  C   C48       1.0  0.72557  0.00111  0.41369  1.0000
  C   C49       1.0  0.69681  0.00074  0.33256  1.0000
  C   C50       1.0  0.00055  0.22292  0.41854  1.0000
  C   C51       1.0  0.00046  0.27791  0.41815  1.0000
  C   C52       1.0  0.00033  0.30650  0.33684  1.0000
  C   C53       1.0  0.19478  0.00280  0.33441  1.0000
  C   C54       1.0  0.30699  0.00350  0.32942  1.0000
  C   C55       1.0  0.27928  0.98569  0.40586  1.0000
  C   C56       1.0  0.22430  0.98592  0.40888  1.0000
  C   C57       1.0  0.00208  0.80866  0.32870  1.0000
  C   C58       1.0  0.98428  0.77960  0.40308  1.0000
  C   C59       1.0  0.98351  0.72463  0.40075  1.0000
  C   C60       1.0  0.00162  0.69638  0.32510  1.0000
  H   H19       1.0  0.96865  0.70550  0.45517  1.0000
  H   H20       1.0  0.97108  0.79836  0.45922  1.0000
  H   H21       1.0  0.82752  0.89752  0.31691  1.0000
  H   H22       1.0  0.96918  0.96939  0.34270  1.0000
  H   H23       1.0  0.03374  0.03444  0.32679  1.0000
  H   H24       1.0  0.10817  0.82641  0.33357  1.0000
  H   H25       1.0  0.17777  0.89650  0.33197  1.0000
  H   H26       1.0  0.20588  0.97267  0.46531  1.0000
  H   H27       1.0  0.29881  0.97120  0.46015  1.0000
  H   H28       1.0  0.17505  0.10711  0.35184  1.0000
  H   H29       1.0  0.00071  0.20355  0.47850  1.0000
  H   H30       1.0  0.00125  0.29692  0.47839  1.0000
  H   H31       1.0  0.70669  0.00196  0.47405  1.0000
  H   H32       1.0  0.79999  0.00201  0.47365  1.0000
  C   C61       1.0  0.00939  0.60998  0.40147  1.0000
  N   N7        1.0  0.00762  0.55713  0.39868  1.0000
  C   C62       1.0  0.96656  0.44650  0.39635  1.0000
  C   C63       1.0  0.96791  0.39117  0.39693  1.0000
  H   H33       1.0  0.94412  0.37138  0.44044  1.0000
  H   H34       1.0  0.01723  0.62711  0.46171  1.0000
  C   C64       1.0  0.93253  0.47277  0.45339  1.0000
  O   O5        1.0  0.93519  0.46388  0.53368  1.0000
  O   O6        1.0  0.88962  0.48872  0.42702  1.0000
  H   H35       1.0  0.88110  0.49356  0.37011  1.0000
  C   C65       1.0  0.39405  0.01168  0.40332  1.0000
  N   N8        1.0  0.44687  0.00959  0.39920  1.0000
  C   C66       1.0  0.55712  0.96716  0.39458  1.0000
  C   C67       1.0  0.61245  0.96833  0.39394  1.0000
  H   H36       1.0  0.63247  0.94460  0.43724  1.0000
  H   H37       1.0  0.37745  0.02038  0.46366  1.0000
  C   C68       1.0  0.53112  0.93339  0.45243  1.0000
  O   O7        1.0  0.54067  0.93615  0.53250  1.0000
  O   O8        1.0  0.51468  0.89054  0.42668  1.0000
  H   H38       1.0  0.50936  0.88194  0.36994  1.0000
