data_image0
_chemical_formula_structural       C11H6C6H3C6N2C7H6NC7H6NC7H6NC3HNO2CHC3HNO2CHC3HNO2CHC3HNO2CHC3HNO2CHC3HNO2CHC7H6NC11H6C6H3C6N2C11H6C6H3C6N2C11H6C6H3C6N2C3HNO2CHC3HNO2CHC3HNO2CHC3HNO2CHC3HNO2CHC3HNO2CH
_chemical_formula_sum              "C168 H84 N24 O24"
_cell_length_a       70.3521
_cell_length_b       70.3576
_cell_length_c       14.9255
_cell_angle_alpha    90
_cell_angle_beta     90
_cell_angle_gamma    119.995

_space_group_name_H-M_alt    "P 1"
_space_group_IT_number       1

loop_
  _space_group_symop_operation_xyz
  'x, y, z'

loop_
  _atom_site_type_symbol
  _atom_site_label
  _atom_site_symmetry_multiplicity
  _atom_site_fract_x
  _atom_site_fract_y
  _atom_site_fract_z
  _atom_site_occupancy
  C   C1        1.0  0.08170  0.03941  0.33119  1.0000
  C   C2        1.0  0.95485  0.04326  0.33056  1.0000
  C   C3        1.0  0.95106  0.91263  0.33061  1.0000
  C   C4        1.0  0.93175  0.06693  0.32958  1.0000
  C   C5        1.0  0.94946  0.07261  0.27046  1.0000
  C   C6        1.0  0.96102  0.06105  0.27121  1.0000
  C   C7        1.0  0.11637  0.04247  0.28269  1.0000
  C   C8        1.0  0.09324  0.03098  0.28371  1.0000
  C   C9        1.0  0.92740  0.86587  0.32951  1.0000
  C   C10       1.0  0.92153  0.87791  0.27123  1.0000
  C   C11       1.0  0.93311  0.90103  0.27202  1.0000
  H   H1        1.0  0.95413  0.08534  0.22636  1.0000
  H   H2        1.0  0.97383  0.06566  0.22751  1.0000
  H   H3        1.0  0.08500  0.01653  0.24887  1.0000
  H   H4        1.0  0.12438  0.03612  0.24727  1.0000
  H   H5        1.0  0.90868  0.86986  0.22771  1.0000
  H   H6        1.0  0.92836  0.90923  0.22894  1.0000
  C   C12       1.0  0.98362  0.97520  0.33096  1.0000
  C   C13       1.0  0.00681  0.98626  0.33115  1.0000
  C   C14       1.0  0.01912  0.00945  0.33123  1.0000
  C   C15       1.0  0.00806  0.02159  0.33112  1.0000
  C   C16       1.0  0.98487  0.01071  0.33094  1.0000
  C   C17       1.0  0.97274  0.98752  0.33087  1.0000
  H   H7        1.0  0.01694  0.03844  0.33114  1.0000
  H   H8        1.0  0.01479  0.97738  0.33119  1.0000
  H   H9        1.0  0.95588  0.97954  0.33070  1.0000
  C   C18       1.0  0.96207  0.93410  0.33063  1.0000
  C   C19       1.0  0.97231  0.95373  0.33079  1.0000
  C   C20       1.0  0.96531  0.03226  0.33058  1.0000
  C   C21       1.0  0.97471  0.02202  0.33074  1.0000
  C   C22       1.0  0.04060  0.01961  0.33127  1.0000
  C   C23       1.0  0.06023  0.02898  0.33123  1.0000
  N   N1        1.0  0.92101  0.07804  0.32345  1.0000
  N   N2        1.0  0.91627  0.84403  0.32343  1.0000
  C   C24       1.0  0.49727  0.30214  0.31890  1.0000
  C   C25       1.0  0.51417  0.32420  0.31800  1.0000
  C   C26       1.0  0.32803  0.17771  0.30917  1.0000
  C   C27       1.0  0.30492  0.16603  0.31044  1.0000
  C   C28       1.0  0.29318  0.14413  0.34209  1.0000
  C   C29       1.0  0.47583  0.16130  0.30306  1.0000
  C   C30       1.0  0.49329  0.15689  0.30402  1.0000
  H   H10       1.0  0.52987  0.32763  0.30551  1.0000
  H   H11       1.0  0.33597  0.19357  0.28621  1.0000
  H   H12       1.0  0.29677  0.17384  0.28940  1.0000
  H   H13       1.0  0.46209  0.15136  0.26618  1.0000
  H   H14       1.0  0.49173  0.14382  0.26814  1.0000
  H   H15       1.0  0.50123  0.29014  0.30812  1.0000
  N   N3        1.0  0.27135  0.13244  0.34835  1.0000
  C   C31       1.0  0.69219  0.19632  0.31861  1.0000
  C   C32       1.0  0.67014  0.19116  0.31778  1.0000
  C   C33       1.0  0.81665  0.15150  0.30793  1.0000
  C   C34       1.0  0.82834  0.14008  0.30918  1.0000
  C   C35       1.0  0.85024  0.15025  0.34084  1.0000
  C   C36       1.0  0.83308  0.31571  0.30285  1.0000
  C   C37       1.0  0.83750  0.33758  0.30393  1.0000
  H   H16       1.0  0.66669  0.20342  0.30529  1.0000
  H   H17       1.0  0.80079  0.14358  0.28498  1.0000
  H   H18       1.0  0.82053  0.12412  0.28810  1.0000
  H   H19       1.0  0.84302  0.31191  0.26598  1.0000
  H   H20       1.0  0.85059  0.34910  0.26814  1.0000
  H   H21       1.0  0.70419  0.21227  0.30779  1.0000
  N   N4        1.0  0.86196  0.14014  0.34714  1.0000
  C   C38       1.0  0.79801  0.49700  0.31866  1.0000
  C   C39       1.0  0.80318  0.48011  0.31782  1.0000
  C   C40       1.0  0.84281  0.66624  0.30806  1.0000
  C   C41       1.0  0.85424  0.68935  0.30930  1.0000
  C   C42       1.0  0.84407  0.70108  0.34093  1.0000
  C   C43       1.0  0.67858  0.51847  0.30284  1.0000
  C   C44       1.0  0.65671  0.50103  0.30391  1.0000
  H   H22       1.0  0.79092  0.46441  0.30536  1.0000
  H   H23       1.0  0.85072  0.65829  0.28512  1.0000
  H   H24       1.0  0.87020  0.69749  0.28825  1.0000
  H   H25       1.0  0.68238  0.53221  0.26597  1.0000
  H   H26       1.0  0.64520  0.50260  0.26812  1.0000
  H   H27       1.0  0.78205  0.49304  0.30786  1.0000
  N   N5        1.0  0.85418  0.72291  0.34722  1.0000
  C   C45       1.0  0.23393  0.12031  0.32720  1.0000
  C   C46       1.0  0.21878  0.11050  0.25544  1.0000
  C   C47       1.0  0.19597  0.09835  0.27363  1.0000
  H   H28       1.0  0.18533  0.09189  0.22082  1.0000
  N   N6        1.0  0.22661  0.11311  0.16608  1.0000
  O   O1        1.0  0.22138  0.09496  0.13047  1.0000
  O   O2        1.0  0.21950  0.12290  0.11817  1.0000
  C   C48       1.0  0.25608  0.13421  0.30853  1.0000
  H   H29       1.0  0.25999  0.14579  0.26250  1.0000
  C   C49       1.0  0.87415  0.11486  0.32749  1.0000
  C   C50       1.0  0.88369  0.10918  0.25580  1.0000
  C   C51       1.0  0.89616  0.09887  0.27440  1.0000
  H   H30       1.0  0.90251  0.09455  0.22167  1.0000
  N   N7        1.0  0.88056  0.11378  0.16616  1.0000
  O   O3        1.0  0.89849  0.12661  0.12870  1.0000
  O   O4        1.0  0.87069  0.09657  0.12010  1.0000
  C   C52       1.0  0.86006  0.12290  0.30878  1.0000
  H   H31       1.0  0.84826  0.11491  0.26389  1.0000
  C   C53       1.0  0.87948  0.76036  0.32743  1.0000
  C   C54       1.0  0.88513  0.77558  0.25574  1.0000
  C   C55       1.0  0.89548  0.79835  0.27432  1.0000
  H   H32       1.0  0.89977  0.80903  0.22159  1.0000
  N   N8        1.0  0.88047  0.76784  0.16612  1.0000
  O   O5        1.0  0.86764  0.77296  0.12884  1.0000
  O   O6        1.0  0.89765  0.77516  0.11988  1.0000
  C   C56       1.0  0.87142  0.73824  0.30873  1.0000
  H   H33       1.0  0.87937  0.73441  0.26374  1.0000
  C   C57       1.0  0.55653  0.15805  0.32810  1.0000
  C   C58       1.0  0.56891  0.15805  0.25375  1.0000
  C   C59       1.0  0.59088  0.16278  0.26325  1.0000
  H   H34       1.0  0.56227  0.15550  0.19077  1.0000
  N   N9        1.0  0.60336  0.16383  0.18682  1.0000
  O   O7        1.0  0.60532  0.17840  0.13275  1.0000
  O   O8        1.0  0.59490  0.14575  0.14639  1.0000
  C   C60       1.0  0.53575  0.15520  0.31545  1.0000
  H   H35       1.0  0.52582  0.14434  0.27057  1.0000
  C   C61       1.0  0.83633  0.39964  0.32812  1.0000
  C   C62       1.0  0.83630  0.41200  0.25376  1.0000
  C   C63       1.0  0.83157  0.42924  0.26327  1.0000
  H   H36       1.0  0.83886  0.40792  0.19078  1.0000
  N   N10       1.0  0.83050  0.44066  0.18683  1.0000
  O   O9        1.0  0.81592  0.42805  0.13282  1.0000
  O   O10       1.0  0.84858  0.45028  0.14635  1.0000
  C   C64       1.0  0.83921  0.38172  0.31549  1.0000
  H   H37       1.0  0.85000  0.38263  0.27031  1.0000
  C   C65       1.0  0.59465  0.43781  0.32812  1.0000
  C   C66       1.0  0.58227  0.42542  0.25378  1.0000
  C   C67       1.0  0.56504  0.40345  0.26330  1.0000
  H   H38       1.0  0.58636  0.43205  0.19078  1.0000
  N   N11       1.0  0.55363  0.39097  0.18687  1.0000
  O   O11       1.0  0.56624  0.38900  0.13285  1.0000
  O   O12       1.0  0.54399  0.39941  0.14639  1.0000
  C   C68       1.0  0.61257  0.45860  0.31547  1.0000
  H   H39       1.0  0.61166  0.46848  0.27027  1.0000
  C   C69       1.0  0.93694  0.03727  0.38900  1.0000
  C   C70       1.0  0.92550  0.04895  0.38827  1.0000
  C   C71       1.0  0.09367  0.05950  0.37751  1.0000
  C   C72       1.0  0.11679  0.07086  0.37668  1.0000
  C   C73       1.0  0.12846  0.06238  0.33000  1.0000
  C   C74       1.0  0.95722  0.90072  0.38824  1.0000
  C   C75       1.0  0.94554  0.87760  0.38746  1.0000
  H   H40       1.0  0.91232  0.04396  0.43000  1.0000
  H   H41       1.0  0.08576  0.06616  0.41165  1.0000
  H   H42       1.0  0.12503  0.08559  0.40922  1.0000
  H   H43       1.0  0.97035  0.90867  0.43071  1.0000
  H   H44       1.0  0.95066  0.86941  0.42856  1.0000
  H   H45       1.0  0.93191  0.02428  0.43207  1.0000
  N   N12       1.0  0.15030  0.07289  0.32399  1.0000
  C   C76       1.0  0.33996  0.16777  0.34007  1.0000
  C   C77       1.0  0.47533  0.29678  0.33415  1.0000
  C   C78       1.0  0.47752  0.17940  0.35083  1.0000
  C   C79       1.0  0.50958  0.34135  0.33329  1.0000
  C   C80       1.0  0.48755  0.33591  0.34647  1.0000
  C   C81       1.0  0.47055  0.31382  0.34771  1.0000
  C   C82       1.0  0.30526  0.13442  0.37384  1.0000
  C   C83       1.0  0.32838  0.14601  0.37249  1.0000
  C   C84       1.0  0.51276  0.17051  0.35246  1.0000
  C   C85       1.0  0.51422  0.18845  0.40063  1.0000
  C   C86       1.0  0.49684  0.19294  0.39979  1.0000
  H   H46       1.0  0.48377  0.34804  0.35643  1.0000
  H   H47       1.0  0.45476  0.31037  0.35854  1.0000
  H   H48       1.0  0.33660  0.13842  0.39599  1.0000
  H   H49       1.0  0.29724  0.11872  0.39832  1.0000
  H   H50       1.0  0.52816  0.19868  0.43572  1.0000
  H   H51       1.0  0.49864  0.20634  0.43431  1.0000
  C   C87       1.0  0.43779  0.20091  0.34180  1.0000
  C   C88       1.0  0.41462  0.18893  0.34151  1.0000
  C   C89       1.0  0.40251  0.20003  0.33966  1.0000
  C   C90       1.0  0.41374  0.22325  0.33815  1.0000
  C   C91       1.0  0.43692  0.23532  0.33849  1.0000
  C   C92       1.0  0.44883  0.22407  0.34030  1.0000
  H   H52       1.0  0.40504  0.23141  0.33688  1.0000
  H   H53       1.0  0.40656  0.17208  0.34280  1.0000
  H   H54       1.0  0.46571  0.23283  0.34066  1.0000
  C   C93       1.0  0.46202  0.18442  0.34701  1.0000
  C   C94       1.0  0.44939  0.19111  0.34414  1.0000
  C   C95       1.0  0.45996  0.27617  0.33587  1.0000
  C   C96       1.0  0.44776  0.25676  0.33719  1.0000
  C   C97       1.0  0.38105  0.18888  0.33964  1.0000
  C   C98       1.0  0.36141  0.17871  0.33979  1.0000
  N   N13       1.0  0.52509  0.36244  0.33124  1.0000
  N   N14       1.0  0.53033  0.16809  0.35447  1.0000
  C   C99       1.0  0.82658  0.17337  0.33883  1.0000
  C   C100      1.0  0.69756  0.17974  0.33384  1.0000
  C   C101      1.0  0.81496  0.29929  0.35052  1.0000
  C   C102      1.0  0.65298  0.16942  0.33312  1.0000
  C   C103      1.0  0.65842  0.15284  0.34629  1.0000
  C   C104      1.0  0.68052  0.15793  0.34746  1.0000
  C   C105      1.0  0.85995  0.17204  0.37250  1.0000
  C   C106      1.0  0.84835  0.18357  0.37119  1.0000
  C   C107      1.0  0.82388  0.34342  0.35237  1.0000
  C   C108      1.0  0.80592  0.32693  0.40043  1.0000
  C   C109      1.0  0.80142  0.30507  0.39949  1.0000
  H   H55       1.0  0.64630  0.13693  0.35628  1.0000
  H   H56       1.0  0.68397  0.14559  0.35827  1.0000
  H   H57       1.0  0.85593  0.19937  0.39468  1.0000
  H   H58       1.0  0.87565  0.17974  0.39697  1.0000
  H   H59       1.0  0.79569  0.33065  0.43555  1.0000
  H   H60       1.0  0.78801  0.29346  0.43395  1.0000
  C   C110      1.0  0.79343  0.23806  0.34123  1.0000
  C   C111      1.0  0.80542  0.22686  0.34075  1.0000
  C   C112      1.0  0.79431  0.20365  0.33879  1.0000
  C   C113      1.0  0.77109  0.19167  0.33739  1.0000
  C   C114      1.0  0.75902  0.20278  0.33793  1.0000
  C   C115      1.0  0.77027  0.22594  0.33984  1.0000
  H   H61       1.0  0.76293  0.17482  0.33605  1.0000
  H   H62       1.0  0.82226  0.23564  0.34196  1.0000
  H   H63       1.0  0.76152  0.23407  0.34035  1.0000
  C   C116      1.0  0.80993  0.27877  0.34661  1.0000
  C   C117      1.0  0.80324  0.25945  0.34367  1.0000
  C   C118      1.0  0.71817  0.18498  0.33548  1.0000
  C   C119      1.0  0.73758  0.19219  0.33672  1.0000
  C   C120      1.0  0.80546  0.19333  0.33860  1.0000
  C   C121      1.0  0.81562  0.18387  0.33862  1.0000
  N   N15       1.0  0.63189  0.16384  0.33112  1.0000
  N   N16       1.0  0.82632  0.36342  0.35452  1.0000
  C   C122      1.0  0.82094  0.65431  0.33894  1.0000
  C   C123      1.0  0.81458  0.51894  0.33388  1.0000
  C   C124      1.0  0.69500  0.51677  0.35053  1.0000
  C   C125      1.0  0.82492  0.48470  0.33314  1.0000
  C   C126      1.0  0.84150  0.50672  0.34630  1.0000
  C   C127      1.0  0.83640  0.52372  0.34747  1.0000
  C   C128      1.0  0.82227  0.68901  0.37258  1.0000
  C   C129      1.0  0.81074  0.66589  0.37128  1.0000
  C   C130      1.0  0.65087  0.48156  0.35236  1.0000
  C   C131      1.0  0.66736  0.48010  0.40045  1.0000
  C   C132      1.0  0.68922  0.49746  0.39951  1.0000
  H   H64       1.0  0.85741  0.51051  0.35627  1.0000
  H   H65       1.0  0.84874  0.53951  0.35827  1.0000
  H   H66       1.0  0.79494  0.65767  0.39475  1.0000
  H   H67       1.0  0.81458  0.69702  0.39703  1.0000
  H   H68       1.0  0.66364  0.46616  0.43557  1.0000
  H   H69       1.0  0.70083  0.49566  0.43397  1.0000
  C   C133      1.0  0.75624  0.55649  0.34127  1.0000
  C   C134      1.0  0.76744  0.57966  0.34081  1.0000
  C   C135      1.0  0.79065  0.59176  0.33887  1.0000
  C   C136      1.0  0.80263  0.58053  0.33745  1.0000
  C   C137      1.0  0.79153  0.55735  0.33798  1.0000
  C   C138      1.0  0.76836  0.54544  0.33987  1.0000
  H   H70       1.0  0.81948  0.58922  0.33612  1.0000
  H   H71       1.0  0.75865  0.58772  0.34203  1.0000
  H   H72       1.0  0.76023  0.52856  0.34037  1.0000
  C   C139      1.0  0.71553  0.53227  0.34663  1.0000
  C   C140      1.0  0.73484  0.54489  0.34369  1.0000
  C   C141      1.0  0.80933  0.53430  0.33552  1.0000
  C   C142      1.0  0.80212  0.54651  0.33676  1.0000
  C   C143      1.0  0.80096  0.61322  0.33869  1.0000
  C   C144      1.0  0.81043  0.63285  0.33872  1.0000
  N   N17       1.0  0.83051  0.46919  0.33114  1.0000
  N   N18       1.0  0.63087  0.46402  0.35451  1.0000
  C   C145      1.0  0.18764  0.09577  0.36173  1.0000
  C   C146      1.0  0.20298  0.10529  0.43224  1.0000
  C   C147      1.0  0.22588  0.11751  0.41646  1.0000
  H   H73       1.0  0.19749  0.10384  0.49685  1.0000
  N   N19       1.0  0.24065  0.12752  0.48887  1.0000
  O   O13       1.0  0.23947  0.11352  0.54430  1.0000
  O   O14       1.0  0.23721  0.14119  0.52925  1.0000
  C   C148      1.0  0.16520  0.08543  0.38027  1.0000
  H   H74       1.0  0.16049  0.08795  0.43986  1.0000
  C   C149      1.0  0.89933  0.09381  0.36286  1.0000
  C   C150      1.0  0.89005  0.09995  0.43322  1.0000
  C   C151      1.0  0.87748  0.11025  0.41704  1.0000
  H   H75       1.0  0.89190  0.09641  0.49813  1.0000
  N   N20       1.0  0.86773  0.11534  0.48945  1.0000
  O   O15       1.0  0.88194  0.12863  0.54307  1.0000
  O   O16       1.0  0.85443  0.09844  0.53196  1.0000
  C   C152      1.0  0.91026  0.08230  0.38228  1.0000
  H   H76       1.0  0.90962  0.07701  0.44465  1.0000
  C   C153      1.0  0.90059  0.80660  0.36275  1.0000
  C   C154      1.0  0.89447  0.79118  0.43312  1.0000
  C   C155      1.0  0.88414  0.76831  0.41697  1.0000
  H   H77       1.0  0.89805  0.79658  0.49801  1.0000
  N   N21       1.0  0.87908  0.75347  0.48938  1.0000
  O   O17       1.0  0.86582  0.75442  0.54314  1.0000
  O   O18       1.0  0.89599  0.75706  0.53173  1.0000
  C   C156      1.0  0.91215  0.82903  0.38212  1.0000
  H   H78       1.0  0.91758  0.83369  0.44433  1.0000
  C   C157      1.0  0.60060  0.16719  0.34988  1.0000
  C   C158      1.0  0.58805  0.16647  0.42582  1.0000
  C   C159      1.0  0.56619  0.16186  0.41393  1.0000
  H   H79       1.0  0.55742  0.16175  0.46892  1.0000
  N   N22       1.0  0.59754  0.17053  0.51259  1.0000
  O   O19       1.0  0.58724  0.15424  0.56328  1.0000
  O   O20       1.0  0.59811  0.18696  0.54851  1.0000
  C   C160      1.0  0.62285  0.17469  0.35991  1.0000
  H   H80       1.0  0.63194  0.18909  0.39006  1.0000
  C   C161      1.0  0.82718  0.43456  0.34990  1.0000
  C   C162      1.0  0.82791  0.42274  0.42583  1.0000
  C   C163      1.0  0.83254  0.40550  0.41396  1.0000
  H   H81       1.0  0.83266  0.39685  0.46895  1.0000
  N   N23       1.0  0.82386  0.42818  0.51262  1.0000
  O   O21       1.0  0.84015  0.43417  0.56328  1.0000
  O   O22       1.0  0.80743  0.41232  0.54857  1.0000
  C   C164      1.0  0.81967  0.44931  0.35994  1.0000
  H   H82       1.0  0.80526  0.44399  0.39010  1.0000
  C   C165      1.0  0.55972  0.39374  0.34994  1.0000
  C   C166      1.0  0.57155  0.40630  0.42586  1.0000
  C   C167      1.0  0.58879  0.42816  0.41397  1.0000
  H   H83       1.0  0.59745  0.43692  0.46895  1.0000
  N   N24       1.0  0.56612  0.39681  0.51264  1.0000
  O   O23       1.0  0.56013  0.40711  0.56332  1.0000
  O   O24       1.0  0.58198  0.39624  0.54856  1.0000
  C   C168      1.0  0.54498  0.37149  0.35999  1.0000
  H   H84       1.0  0.55031  0.36240  0.39013  1.0000
