data_image0
_chemical_formula_structural       C4HNO2C4HNO2C4HNO2C4HNO2C4HNO2C4HNO2C2HNO2C2HNO2C2HNO2C2HNO2C2HNO2C2HNO2C2HNO2C2HNO2C2HNO2C2HNO2C2HNO2C2HNO2C6H3C6H3C6H3C6H3C6H3C6H3C6H3C6H3C6H3C6H3C6H3C6H3C2HNO2C2HNO2C2HNO2C2HNO2C2HNO2C2HNO2C4HNO2C4HNO2C4HNO2C4HNO2C4HNO2C4HNO2C4HNO2C4HNO2C4HNO2C4HNO2C4HNO2C4HNO2
_chemical_formula_sum              "C180 H72 N36 O72"
_cell_length_a       37.5789
_cell_length_b       37.579
_cell_length_c       14.7893
_cell_angle_alpha    90
_cell_angle_beta     90
_cell_angle_gamma    120

_space_group_name_H-M_alt    "P 1"
_space_group_IT_number       1

loop_
  _space_group_symop_operation_xyz
  'x, y, z'

loop_
  _atom_site_type_symbol
  _atom_site_label
  _atom_site_symmetry_multiplicity
  _atom_site_fract_x
  _atom_site_fract_y
  _atom_site_fract_z
  _atom_site_occupancy
  C   C1        1.0  0.22685  0.44068  0.34746  1.0000
  C   C2        1.0  0.21567  0.41837  0.26565  1.0000
  C   C3        1.0  0.19385  0.37475  0.26464  1.0000
  C   C4        1.0  0.18279  0.35263  0.34754  1.0000
  H   H1        1.0  0.22348  0.43398  0.20553  1.0000
  N   N1        1.0  0.18290  0.35277  0.18193  1.0000
  O   O1        1.0  0.15970  0.36071  0.13558  1.0000
  O   O2        1.0  0.21409  0.36080  0.13567  1.0000
  C   C5        1.0  0.56839  0.78092  0.34761  1.0000
  C   C6        1.0  0.59069  0.79202  0.26579  1.0000
  C   C7        1.0  0.63431  0.81386  0.26476  1.0000
  C   C8        1.0  0.65644  0.82497  0.34765  1.0000
  H   H2        1.0  0.57508  0.78419  0.20568  1.0000
  N   N2        1.0  0.65629  0.82489  0.18204  1.0000
  O   O3        1.0  0.64837  0.79374  0.13574  1.0000
  O   O4        1.0  0.64822  0.84801  0.13575  1.0000
  C   C9        1.0  0.22812  0.78232  0.34747  1.0000
  C   C10       1.0  0.21697  0.79347  0.26566  1.0000
  C   C11       1.0  0.19515  0.81526  0.26464  1.0000
  C   C12       1.0  0.18409  0.82633  0.34755  1.0000
  H   H3        1.0  0.22477  0.78566  0.20555  1.0000
  N   N3        1.0  0.18409  0.82619  0.18193  1.0000
  O   O5        1.0  0.21523  0.84940  0.13557  1.0000
  O   O6        1.0  0.16095  0.79499  0.13570  1.0000
  C   C13       1.0  0.78876  0.56192  0.34749  1.0000
  C   C14       1.0  0.79990  0.58421  0.26567  1.0000
  C   C15       1.0  0.82169  0.62784  0.26466  1.0000
  C   C16       1.0  0.83277  0.64997  0.34755  1.0000
  H   H4        1.0  0.79208  0.56861  0.20556  1.0000
  N   N4        1.0  0.83261  0.64982  0.18194  1.0000
  O   O7        1.0  0.85582  0.64189  0.13556  1.0000
  O   O8        1.0  0.80141  0.64177  0.13572  1.0000
  C   C17       1.0  0.44716  0.22165  0.34745  1.0000
  C   C18       1.0  0.42486  0.21055  0.26564  1.0000
  C   C19       1.0  0.38124  0.18872  0.26464  1.0000
  C   C20       1.0  0.35911  0.17764  0.34754  1.0000
  H   H5        1.0  0.44047  0.21836  0.20553  1.0000
  N   N5        1.0  0.35925  0.17770  0.18193  1.0000
  O   O9        1.0  0.36718  0.20885  0.13562  1.0000
  O   O10       1.0  0.36730  0.15456  0.13564  1.0000
  C   C21       1.0  0.78743  0.22035  0.34769  1.0000
  C   C22       1.0  0.79853  0.20916  0.26586  1.0000
  C   C23       1.0  0.82035  0.18736  0.26481  1.0000
  C   C24       1.0  0.83144  0.17631  0.34770  1.0000
  H   H6        1.0  0.79071  0.21696  0.20576  1.0000
  N   N6        1.0  0.83137  0.17641  0.18209  1.0000
  O   O11       1.0  0.80022  0.15320  0.13578  1.0000
  O   O12       1.0  0.85451  0.20760  0.13581  1.0000
  C   C25       1.0  0.21619  0.18842  0.26495  1.0000
  C   C26       1.0  0.19431  0.21016  0.26601  1.0000
  H   H7        1.0  0.18650  0.21797  0.20590  1.0000
  N   N7        1.0  0.22718  0.17742  0.18225  1.0000
  O   O13       1.0  0.19601  0.15417  0.13605  1.0000
  O   O14       1.0  0.25032  0.20856  0.13584  1.0000
  C   C27       1.0  0.82066  0.02261  0.26499  1.0000
  C   C28       1.0  0.79891  0.97898  0.26604  1.0000
  H   H8        1.0  0.79111  0.96337  0.20593  1.0000
  N   N8        1.0  0.83166  0.04460  0.18229  1.0000
  O   O15       1.0  0.85491  0.03667  0.13609  1.0000
  O   O16       1.0  0.80052  0.03660  0.13587  1.0000
  C   C29       1.0  0.98646  0.79289  0.26495  1.0000
  C   C30       1.0  0.03008  0.81478  0.26601  1.0000
  H   H9        1.0  0.04569  0.82258  0.20590  1.0000
  N   N9        1.0  0.96447  0.78190  0.18225  1.0000
  O   O17       1.0  0.97239  0.81307  0.13604  1.0000
  O   O18       1.0  0.97248  0.75877  0.13585  1.0000
  C   C31       1.0  0.79935  0.81419  0.26497  1.0000
  C   C32       1.0  0.82122  0.79243  0.26601  1.0000
  H   H10       1.0  0.82903  0.78463  0.20590  1.0000
  N   N10       1.0  0.78837  0.82520  0.18227  1.0000
  O   O19       1.0  0.81955  0.84844  0.13606  1.0000
  O   O20       1.0  0.76523  0.79406  0.13586  1.0000
  C   C33       1.0  0.19487  0.98002  0.26496  1.0000
  C   C34       1.0  0.21664  0.02365  0.26601  1.0000
  H   H11       1.0  0.22444  0.03925  0.20590  1.0000
  N   N11       1.0  0.18387  0.95803  0.18225  1.0000
  O   O21       1.0  0.16063  0.96597  0.13604  1.0000
  O   O22       1.0  0.21501  0.96602  0.13585  1.0000
  C   C35       1.0  0.02907  0.20972  0.26497  1.0000
  C   C36       1.0  0.98544  0.18784  0.26604  1.0000
  H   H12       1.0  0.96983  0.18004  0.20592  1.0000
  N   N12       1.0  0.05105  0.22070  0.18226  1.0000
  O   O23       1.0  0.04312  0.18952  0.13606  1.0000
  O   O24       1.0  0.04305  0.24384  0.13585  1.0000
  C   C37       1.0  0.23001  0.63165  0.26612  1.0000
  C   C38       1.0  0.22880  0.59335  0.26720  1.0000
  H   H13       1.0  0.23233  0.58181  0.20723  1.0000
  N   N13       1.0  0.23419  0.65240  0.18320  1.0000
  O   O25       1.0  0.20426  0.63166  0.13161  1.0000
  O   O26       1.0  0.26679  0.66049  0.14257  1.0000
  C   C39       1.0  0.37742  0.59311  0.26584  1.0000
  C   C40       1.0  0.41575  0.63019  0.26683  1.0000
  H   H14       1.0  0.42721  0.64527  0.20684  1.0000
  N   N14       1.0  0.35661  0.57649  0.18301  1.0000
  O   O27       1.0  0.37730  0.56724  0.13141  1.0000
  O   O28       1.0  0.34851  0.60098  0.14234  1.0000
  C   C41       1.0  0.41567  0.77884  0.26622  1.0000
  C   C42       1.0  0.37864  0.78018  0.26744  1.0000
  H   H15       1.0  0.36347  0.77650  0.20753  1.0000
  N   N15       1.0  0.43208  0.77448  0.18323  1.0000
  O   O29       1.0  0.44125  0.80434  0.13142  1.0000
  O   O30       1.0  0.40747  0.74183  0.14289  1.0000
  C   C43       1.0  0.78529  0.37088  0.26604  1.0000
  C   C44       1.0  0.78650  0.40919  0.26734  1.0000
  H   H16       1.0  0.78287  0.42073  0.20746  1.0000
  N   N16       1.0  0.78099  0.35013  0.18307  1.0000
  O   O31       1.0  0.81083  0.37088  0.13128  1.0000
  O   O32       1.0  0.74832  0.34202  0.14272  1.0000
  C   C45       1.0  0.63807  0.40947  0.26594  1.0000
  C   C46       1.0  0.59975  0.37239  0.26701  1.0000
  H   H17       1.0  0.58818  0.35732  0.20704  1.0000
  N   N17       1.0  0.65882  0.42608  0.18305  1.0000
  O   O33       1.0  0.63809  0.43532  0.13155  1.0000
  O   O34       1.0  0.66689  0.40159  0.14230  1.0000
  C   C47       1.0  0.59974  0.22367  0.26604  1.0000
  C   C48       1.0  0.63679  0.22238  0.26689  1.0000
  H   H18       1.0  0.65191  0.22608  0.20690  1.0000
  N   N18       1.0  0.58317  0.22795  0.18320  1.0000
  O   O35       1.0  0.57392  0.19805  0.13148  1.0000
  O   O36       1.0  0.60769  0.26057  0.14266  1.0000
  C   C49       1.0  0.09524  0.24287  0.34782  1.0000
  C   C50       1.0  0.11750  0.22162  0.34790  1.0000
  C   C51       1.0  0.16101  0.24302  0.34781  1.0000
  C   C52       1.0  0.18226  0.28653  0.34765  1.0000
  C   C53       1.0  0.16084  0.30862  0.34759  1.0000
  C   C54       1.0  0.11733  0.28638  0.34767  1.0000
  H   H19       1.0  0.21375  0.30235  0.34760  1.0000
  H   H20       1.0  0.10154  0.30206  0.34763  1.0000
  H   H21       1.0  0.10180  0.19013  0.34799  1.0000
  C   C55       1.0  0.76621  0.84722  0.34784  1.0000
  C   C56       1.0  0.78746  0.89073  0.34791  1.0000
  C   C57       1.0  0.76604  0.91283  0.34785  1.0000
  C   C58       1.0  0.72253  0.89056  0.34774  1.0000
  C   C59       1.0  0.70045  0.84705  0.34768  1.0000
  C   C60       1.0  0.72270  0.82579  0.34773  1.0000
  H   H22       1.0  0.70671  0.90622  0.34770  1.0000
  H   H23       1.0  0.70702  0.79431  0.34769  1.0000
  H   H24       1.0  0.81894  0.90652  0.34798  1.0000
  C   C61       1.0  0.16185  0.91385  0.34782  1.0000
  C   C62       1.0  0.11833  0.89159  0.34790  1.0000
  C   C63       1.0  0.09624  0.84807  0.34781  1.0000
  C   C64       1.0  0.11850  0.82683  0.34765  1.0000
  C   C65       1.0  0.16201  0.84826  0.34759  1.0000
  C   C66       1.0  0.18327  0.89177  0.34767  1.0000
  H   H25       1.0  0.10284  0.79535  0.34760  1.0000
  H   H26       1.0  0.21476  0.90757  0.34763  1.0000
  H   H27       1.0  0.10255  0.90728  0.34799  1.0000
  C   C67       1.0  0.92029  0.75973  0.34782  1.0000
  C   C68       1.0  0.89802  0.78098  0.34790  1.0000
  C   C69       1.0  0.85451  0.75956  0.34781  1.0000
  C   C70       1.0  0.83327  0.71605  0.34765  1.0000
  C   C71       1.0  0.85470  0.69397  0.34760  1.0000
  C   C72       1.0  0.89821  0.71623  0.34767  1.0000
  H   H28       1.0  0.80179  0.70023  0.34761  1.0000
  H   H29       1.0  0.91401  0.70055  0.34763  1.0000
  H   H30       1.0  0.91372  0.81246  0.34799  1.0000
  C   C73       1.0  0.24935  0.15541  0.34782  1.0000
  C   C74       1.0  0.22810  0.11190  0.34790  1.0000
  C   C75       1.0  0.24951  0.08980  0.34782  1.0000
  C   C76       1.0  0.29302  0.11206  0.34766  1.0000
  C   C77       1.0  0.31511  0.15557  0.34760  1.0000
  C   C78       1.0  0.29286  0.17683  0.34767  1.0000
  H   H31       1.0  0.30884  0.09640  0.34761  1.0000
  H   H32       1.0  0.30854  0.20832  0.34762  1.0000
  H   H33       1.0  0.19662  0.09611  0.34799  1.0000
  C   C79       1.0  0.85367  0.08878  0.34786  1.0000
  C   C80       1.0  0.89719  0.11105  0.34792  1.0000
  C   C81       1.0  0.91929  0.15456  0.34785  1.0000
  C   C82       1.0  0.89702  0.17580  0.34776  1.0000
  C   C83       1.0  0.85351  0.15438  0.34772  1.0000
  C   C84       1.0  0.83225  0.11087  0.34776  1.0000
  H   H34       1.0  0.91269  0.20729  0.34772  1.0000
  H   H35       1.0  0.80077  0.09507  0.34774  1.0000
  H   H36       1.0  0.91298  0.09535  0.34797  1.0000
  C   C85       1.0  0.31426  0.55013  0.34847  1.0000
  C   C86       1.0  0.29189  0.57113  0.34882  1.0000
  C   C87       1.0  0.24852  0.54998  0.34846  1.0000
  C   C88       1.0  0.22715  0.50653  0.34771  1.0000
  C   C89       1.0  0.24872  0.48449  0.34749  1.0000
  C   C90       1.0  0.29233  0.50667  0.34767  1.0000
  H   H37       1.0  0.19568  0.49088  0.34756  1.0000
  H   H38       1.0  0.30827  0.49114  0.34751  1.0000
  H   H39       1.0  0.30764  0.60270  0.34919  1.0000
  C   C91       1.0  0.45894  0.75888  0.34832  1.0000
  C   C92       1.0  0.43794  0.71551  0.34849  1.0000
  C   C93       1.0  0.45907  0.69328  0.34821  1.0000
  C   C94       1.0  0.50253  0.71536  0.34761  1.0000
  C   C95       1.0  0.52458  0.75897  0.34762  1.0000
  C   C96       1.0  0.50241  0.78041  0.34795  1.0000
  H   H40       1.0  0.51818  0.69954  0.34743  1.0000
  H   H41       1.0  0.51794  0.81188  0.34799  1.0000
  H   H42       1.0  0.40637  0.69969  0.34878  1.0000
  C   C97       1.0  0.25018  0.69493  0.34852  1.0000
  C   C98       1.0  0.29354  0.71729  0.34901  1.0000
  C   C99       1.0  0.31577  0.76066  0.34856  1.0000
  C   C100      1.0  0.29369  0.78204  0.34784  1.0000
  C   C101      1.0  0.25007  0.76046  0.34751  1.0000
  C   C102      1.0  0.22864  0.71685  0.34763  1.0000
  H   H43       1.0  0.30951  0.81351  0.34778  1.0000
  H   H44       1.0  0.19717  0.70091  0.34742  1.0000
  H   H45       1.0  0.30937  0.70155  0.34951  1.0000
  C   C103      1.0  0.70134  0.45247  0.34848  1.0000
  C   C104      1.0  0.72369  0.43146  0.34892  1.0000
  C   C105      1.0  0.76706  0.45259  0.34852  1.0000
  C   C106      1.0  0.78845  0.49605  0.34788  1.0000
  C   C107      1.0  0.76689  0.51810  0.34751  1.0000
  C   C108      1.0  0.72327  0.49594  0.34759  1.0000
  H   H46       1.0  0.81992  0.51169  0.34784  1.0000
  H   H47       1.0  0.70735  0.51147  0.34735  1.0000
  H   H48       1.0  0.70794  0.39989  0.34936  1.0000
  C   C109      1.0  0.55663  0.24373  0.34849  1.0000
  C   C110      1.0  0.57762  0.28709  0.34887  1.0000
  C   C111      1.0  0.55647  0.30931  0.34844  1.0000
  C   C112      1.0  0.51301  0.28722  0.34758  1.0000
  C   C113      1.0  0.49098  0.24361  0.34748  1.0000
  C   C114      1.0  0.51316  0.22218  0.34779  1.0000
  H   H49       1.0  0.49736  0.30304  0.34736  1.0000
  H   H50       1.0  0.49764  0.19071  0.34770  1.0000
  H   H51       1.0  0.60919  0.30292  0.34925  1.0000
  C   C115      1.0  0.76538  0.30776  0.34826  1.0000
  C   C116      1.0  0.72201  0.28539  0.34843  1.0000
  C   C117      1.0  0.69978  0.24202  0.34819  1.0000
  C   C118      1.0  0.72187  0.22065  0.34774  1.0000
  C   C119      1.0  0.76548  0.24222  0.34771  1.0000
  C   C120      1.0  0.78692  0.28583  0.34795  1.0000
  H   H52       1.0  0.70605  0.18918  0.34764  1.0000
  H   H53       1.0  0.81838  0.30177  0.34798  1.0000
  H   H54       1.0  0.70619  0.30114  0.34869  1.0000
  C   C121      1.0  0.19388  0.37478  0.43040  1.0000
  C   C122      1.0  0.21570  0.41840  0.42931  1.0000
  H   H55       1.0  0.22353  0.43402  0.48940  1.0000
  N   N19       1.0  0.18296  0.35283  0.51316  1.0000
  O   O37       1.0  0.21417  0.36087  0.55937  1.0000
  O   O38       1.0  0.15978  0.36079  0.55952  1.0000
  C   C123      1.0  0.63430  0.81393  0.43053  1.0000
  C   C124      1.0  0.59067  0.79210  0.42945  1.0000
  H   H56       1.0  0.57505  0.78431  0.48955  1.0000
  N   N20       1.0  0.65625  0.82500  0.51327  1.0000
  O   O39       1.0  0.64819  0.84815  0.55944  1.0000
  O   O40       1.0  0.64833  0.79388  0.55968  1.0000
  C   C125      1.0  0.19517  0.81526  0.43042  1.0000
  C   C126      1.0  0.21700  0.79348  0.42932  1.0000
  H   H57       1.0  0.22481  0.78566  0.48942  1.0000
  N   N21       1.0  0.18414  0.82618  0.51317  1.0000
  O   O41       1.0  0.16100  0.79498  0.55940  1.0000
  O   O42       1.0  0.21528  0.84939  0.55951  1.0000
  C   C127      1.0  0.82171  0.62782  0.43042  1.0000
  C   C128      1.0  0.79992  0.58419  0.42933  1.0000
  H   H58       1.0  0.79212  0.56857  0.48943  1.0000
  N   N22       1.0  0.83263  0.64977  0.51317  1.0000
  O   O43       1.0  0.80143  0.64170  0.55942  1.0000
  O   O44       1.0  0.85584  0.64184  0.55950  1.0000
  C   C129      1.0  0.38127  0.18868  0.43040  1.0000
  C   C130      1.0  0.42489  0.21050  0.42930  1.0000
  H   H59       1.0  0.44051  0.21829  0.48939  1.0000
  N   N23       1.0  0.35932  0.17764  0.51316  1.0000
  O   O45       1.0  0.36737  0.15448  0.55934  1.0000
  O   O46       1.0  0.36727  0.20877  0.55955  1.0000
  C   C131      1.0  0.82040  0.18742  0.43058  1.0000
  C   C132      1.0  0.79859  0.20922  0.42952  1.0000
  H   H60       1.0  0.79080  0.21706  0.48962  1.0000
  N   N24       1.0  0.83146  0.17651  0.51331  1.0000
  O   O47       1.0  0.85462  0.20772  0.55950  1.0000
  O   O48       1.0  0.80034  0.15332  0.55971  1.0000
  C   C133      1.0  0.18303  0.22120  0.34782  1.0000
  C   C134      1.0  0.19414  0.20999  0.42964  1.0000
  C   C135      1.0  0.21603  0.18826  0.43069  1.0000
  C   C136      1.0  0.22726  0.17733  0.34782  1.0000
  H   H61       1.0  0.18622  0.21768  0.48975  1.0000
  N   N25       1.0  0.22689  0.17713  0.51340  1.0000
  O   O49       1.0  0.24995  0.20821  0.56008  1.0000
  O   O50       1.0  0.19565  0.15381  0.55933  1.0000
  C   C137      1.0  0.78787  0.95667  0.34786  1.0000
  C   C138      1.0  0.79907  0.97898  0.42968  1.0000
  C   C139      1.0  0.82082  0.02261  0.43073  1.0000
  C   C140      1.0  0.83175  0.04476  0.34786  1.0000
  H   H62       1.0  0.79138  0.96337  0.48978  1.0000
  N   N26       1.0  0.83194  0.04460  0.51344  1.0000
  O   O51       1.0  0.80087  0.03659  0.56012  1.0000
  O   O52       1.0  0.85526  0.03667  0.55937  1.0000
  C   C141      1.0  0.05239  0.82605  0.34782  1.0000
  C   C142      1.0  0.03009  0.81495  0.42964  1.0000
  C   C143      1.0  0.98646  0.79306  0.43070  1.0000
  C   C144      1.0  0.96431  0.78183  0.34783  1.0000
  H   H63       1.0  0.04570  0.82287  0.48975  1.0000
  N   N27       1.0  0.96447  0.78220  0.51340  1.0000
  O   O53       1.0  0.97249  0.75914  0.56009  1.0000
  O   O54       1.0  0.97239  0.81344  0.55933  1.0000
  C   C145      1.0  0.83249  0.78139  0.34782  1.0000
  C   C146      1.0  0.82140  0.79260  0.42965  1.0000
  C   C147      1.0  0.79952  0.81435  0.43071  1.0000
  C   C148      1.0  0.78830  0.82529  0.34784  1.0000
  H   H64       1.0  0.82932  0.78491  0.48976  1.0000
  N   N28       1.0  0.78867  0.82548  0.51342  1.0000
  O   O55       1.0  0.76560  0.79442  0.56010  1.0000
  O   O56       1.0  0.81992  0.84880  0.55934  1.0000
  C   C149      1.0  0.22768  0.04595  0.34783  1.0000
  C   C150      1.0  0.21647  0.02365  0.42965  1.0000
  C   C151      1.0  0.19471  0.98002  0.43070  1.0000
  C   C152      1.0  0.18377  0.95787  0.34783  1.0000
  H   H65       1.0  0.22416  0.03926  0.48976  1.0000
  N   N29       1.0  0.18358  0.95803  0.51341  1.0000
  O   O57       1.0  0.21465  0.96603  0.56008  1.0000
  O   O58       1.0  0.16027  0.96596  0.55934  1.0000
  C   C153      1.0  0.96313  0.17658  0.34785  1.0000
  C   C154      1.0  0.98545  0.18768  0.42967  1.0000
  C   C155      1.0  0.02908  0.20957  0.43071  1.0000
  C   C156      1.0  0.05122  0.22078  0.34784  1.0000
  H   H66       1.0  0.96984  0.17977  0.48978  1.0000
  N   N30       1.0  0.05107  0.22042  0.51342  1.0000
  O   O59       1.0  0.04306  0.24349  0.56010  1.0000
  O   O60       1.0  0.04314  0.18918  0.55934  1.0000
  C   C157      1.0  0.22904  0.57385  0.34867  1.0000
  C   C158      1.0  0.22956  0.59369  0.43021  1.0000
  C   C159      1.0  0.23081  0.63201  0.43132  1.0000
  C   C160      1.0  0.23090  0.65150  0.34872  1.0000
  H   H67       1.0  0.23366  0.58245  0.49003  1.0000
  N   N31       1.0  0.23557  0.65301  0.51416  1.0000
  O   O61       1.0  0.26844  0.66123  0.55369  1.0000
  O   O62       1.0  0.20599  0.63244  0.56672  1.0000
  C   C161      1.0  0.43520  0.64992  0.34831  1.0000
  C   C162      1.0  0.41542  0.63071  0.43002  1.0000
  C   C163      1.0  0.37711  0.59363  0.43126  1.0000
  C   C164      1.0  0.35771  0.57427  0.34860  1.0000
  H   H68       1.0  0.42668  0.64610  0.48978  1.0000
  N   N32       1.0  0.35610  0.57742  0.51410  1.0000
  O   O63       1.0  0.34789  0.60209  0.55355  1.0000
  O   O64       1.0  0.37669  0.56845  0.56670  1.0000
  C   C165      1.0  0.35913  0.78015  0.34914  1.0000
  C   C166      1.0  0.37853  0.77972  0.43054  1.0000
  C   C167      1.0  0.41563  0.77852  0.43148  1.0000
  C   C168      1.0  0.43480  0.77816  0.34878  1.0000
  H   H69       1.0  0.36332  0.77586  0.49046  1.0000
  N   N33       1.0  0.43202  0.77390  0.51421  1.0000
  O   O65       1.0  0.40743  0.74110  0.55407  1.0000
  O   O66       1.0  0.44111  0.80357  0.56656  1.0000
  C   C169      1.0  0.78654  0.42871  0.34905  1.0000
  C   C170      1.0  0.78619  0.40892  0.43050  1.0000
  C   C171      1.0  0.78500  0.37064  0.43147  1.0000
  C   C172      1.0  0.78470  0.35121  0.34870  1.0000
  H   H70       1.0  0.78228  0.42027  0.49037  1.0000
  N   N34       1.0  0.78041  0.34962  0.51419  1.0000
  O   O67       1.0  0.74761  0.34140  0.55407  1.0000
  O   O68       1.0  0.81007  0.37022  0.56653  1.0000
  C   C173      1.0  0.58033  0.35267  0.34851  1.0000
  C   C174      1.0  0.60018  0.37188  0.43015  1.0000
  C   C175      1.0  0.63851  0.40895  0.43126  1.0000
  C   C176      1.0  0.65790  0.42834  0.34858  1.0000
  H   H71       1.0  0.58895  0.35651  0.48995  1.0000
  N   N35       1.0  0.65953  0.42516  0.51409  1.0000
  O   O69       1.0  0.66775  0.40048  0.55352  1.0000
  O   O70       1.0  0.63897  0.43415  0.56673  1.0000
  C   C177      1.0  0.65641  0.22251  0.34841  1.0000
  C   C178      1.0  0.63720  0.22293  0.43015  1.0000
  C   C179      1.0  0.60015  0.22423  0.43132  1.0000
  C   C180      1.0  0.58079  0.22446  0.34880  1.0000
  H   H72       1.0  0.65256  0.22698  0.48992  1.0000
  N   N36       1.0  0.58391  0.22897  0.51417  1.0000
  O   O71       1.0  0.60859  0.26180  0.55379  1.0000
  O   O72       1.0  0.57487  0.19935  0.56664  1.0000
