data_image0
_chemical_formula_structural       C14H12C7NC12H12C2NC3NC3NC15H14C5H2NH2NO2C5H2NH2NO2C5H2NH2NO2C5H2NH2NO2C5H2NH2NO2C5H2NH2NO2C3NC2NC5NC3NC17H14CNC2NC4NC18H14C2NC19H12C3HC4HN2H2O2C3HC4HN2H2O2C3HC4HN2H2O2C3HC4HN2H2O2C3HC4HN2H2O2C3HC4HN2H2O2
_chemical_formula_sum              "C204 H126 N36 O24"
_cell_length_a       50.361
_cell_length_b       50.361
_cell_length_c       14.9307
_cell_angle_alpha    90.0308
_cell_angle_beta     89.9692
_cell_angle_gamma    120

_space_group_name_H-M_alt    "P 1"
_space_group_IT_number       1

loop_
  _space_group_symop_operation_xyz
  'x, y, z'

loop_
  _atom_site_type_symbol
  _atom_site_label
  _atom_site_symmetry_multiplicity
  _atom_site_fract_x
  _atom_site_fract_y
  _atom_site_fract_z
  _atom_site_occupancy
  C   C1        1.0  0.96159  0.54195  0.34545  1.0000
  C   C2        1.0  0.08608  0.53299  0.33893  1.0000
  C   C3        1.0  0.09574  0.56474  0.34575  1.0000
  C   C4        1.0  0.12589  0.61586  0.35584  1.0000
  C   C5        1.0  0.12595  0.58852  0.35612  1.0000
  C   C6        1.0  0.14311  0.70931  0.25705  1.0000
  C   C7        1.0  0.11791  0.67924  0.26005  1.0000
  C   C8        1.0  0.10947  0.52469  0.33563  1.0000
  C   C9        1.0  0.15491  0.52831  0.26302  1.0000
  C   C10       1.0  0.12986  0.53342  0.26207  1.0000
  C   C11       1.0  0.93949  0.42743  0.25997  1.0000
  C   C12       1.0  0.91433  0.39734  0.25696  1.0000
  C   C13       1.0  0.92751  0.57327  0.26178  1.0000
  C   C14       1.0  0.90242  0.57831  0.26272  1.0000
  H   H1        1.0  0.88738  0.57044  0.21010  1.0000
  H   H2        1.0  0.93005  0.56192  0.20854  1.0000
  H   H3        1.0  0.99937  0.63852  0.31415  1.0000
  H   H4        1.0  0.95078  0.43751  0.20175  1.0000
  H   H5        1.0  0.90842  0.38605  0.19690  1.0000
  H   H6        1.0  0.05797  0.46821  0.31364  1.0000
  H   H7        1.0  0.14517  0.63693  0.36074  1.0000
  H   H8        1.0  0.14526  0.58681  0.36181  1.0000
  H   H9        1.0  0.12738  0.54481  0.20886  1.0000
  H   H10       1.0  0.16997  0.53614  0.21042  1.0000
  H   H11       1.0  0.10662  0.66916  0.20183  1.0000
  H   H12       1.0  0.14910  0.72056  0.19696  1.0000
  C   C15       1.0  0.45316  0.46141  0.32103  1.0000
  C   C16       1.0  0.45822  0.50825  0.33526  1.0000
  C   C17       1.0  0.53970  0.49698  0.34527  1.0000
  C   C18       1.0  0.59842  0.59706  0.33554  1.0000
  C   C19       1.0  0.60349  0.64392  0.32158  1.0000
  C   C20       1.0  0.54867  0.63043  0.33859  1.0000
  C   C21       1.0  0.51692  0.60833  0.34530  1.0000
  N   N1        1.0  0.50334  0.57740  0.34089  1.0000
  C   C22       1.0  0.46581  0.58737  0.35562  1.0000
  C   C23       1.0  0.49314  0.61477  0.35578  1.0000
  C   C24       1.0  0.37235  0.51116  0.25679  1.0000
  C   C25       1.0  0.40241  0.51599  0.25972  1.0000
  C   C26       1.0  0.55697  0.66212  0.33530  1.0000
  C   C27       1.0  0.56835  0.72376  0.33567  1.0000
  C   C28       1.0  0.55336  0.70392  0.26267  1.0000
  C   C29       1.0  0.54822  0.67376  0.26177  1.0000
  C   C30       1.0  0.65426  0.58938  0.25967  1.0000
  C   C31       1.0  0.68434  0.59431  0.25673  1.0000
  C   C32       1.0  0.50844  0.43157  0.26150  1.0000
  C   C33       1.0  0.50340  0.40145  0.26246  1.0000
  H   H13       1.0  0.51129  0.39426  0.20989  1.0000
  H   H14       1.0  0.51983  0.44546  0.20830  1.0000
  H   H15       1.0  0.44318  0.43821  0.31317  1.0000
  H   H16       1.0  0.64419  0.59059  0.20144  1.0000
  H   H17       1.0  0.69565  0.59968  0.19671  1.0000
  H   H18       1.0  0.61348  0.66711  0.31358  1.0000
  H   H19       1.0  0.44474  0.58557  0.36073  1.0000
  H   H20       1.0  0.49486  0.63578  0.36175  1.0000
  H   H21       1.0  0.53685  0.65988  0.20853  1.0000
  H   H22       1.0  0.54551  0.71112  0.21009  1.0000
  H   H23       1.0  0.41249  0.51481  0.20145  1.0000
  H   H24       1.0  0.36108  0.50587  0.19672  1.0000
  C   C34       1.0  0.62028  0.06908  0.32179  1.0000
  C   C35       1.0  0.57342  0.02731  0.33554  1.0000
  N   N2        1.0  0.57149  0.05320  0.34114  1.0000
  C   C36       1.0  0.60680  0.11043  0.33852  1.0000
  C   C37       1.0  0.58471  0.12009  0.34520  1.0000
  C   C38       1.0  0.48460  0.07871  0.33562  1.0000
  N   N3        1.0  0.48652  0.05282  0.34127  1.0000
  C   C39       1.0  0.43773  0.03694  0.32199  1.0000
  C   C40       1.0  0.45122  0.99559  0.33849  1.0000
  C   C41       1.0  0.47331  0.98593  0.34501  1.0000
  N   N4        1.0  0.50425  0.00328  0.34078  1.0000
  C   C42       1.0  0.49427  0.95577  0.35500  1.0000
  C   C43       1.0  0.46687  0.95570  0.35519  1.0000
  C   C44       1.0  0.55826  0.97280  0.34107  1.0000
  C   C45       1.0  0.56709  0.92108  0.33428  1.0000
  C   C46       1.0  0.57055  0.93856  0.25656  1.0000
  C   C47       1.0  0.56570  0.96377  0.25955  1.0000
  C   C48       1.0  0.41953  0.97220  0.33524  1.0000
  C   C49       1.0  0.35789  0.92195  0.33571  1.0000
  C   C50       1.0  0.37771  0.92681  0.26260  1.0000
  C   C51       1.0  0.40785  0.95187  0.26158  1.0000
  C   C52       1.0  0.49228  0.14219  0.25963  1.0000
  C   C53       1.0  0.48733  0.16733  0.25665  1.0000
  C   C54       1.0  0.65015  0.15416  0.26156  1.0000
  C   C55       1.0  0.70007  0.18417  0.33572  1.0000
  C   C56       1.0  0.68027  0.17925  0.26258  1.0000
  H   H25       1.0  0.68748  0.19428  0.20993  1.0000
  H   H26       1.0  0.63628  0.15162  0.20828  1.0000
  H   H27       1.0  0.64348  0.08229  0.31376  1.0000
  H   H28       1.0  0.55278  0.05316  0.35437  1.0000
  H   H29       1.0  0.50526  0.05285  0.35403  1.0000
  H   H30       1.0  0.49104  0.13086  0.20144  1.0000
  H   H31       1.0  0.48196  0.17324  0.19660  1.0000
  H   H32       1.0  0.41454  0.02373  0.31407  1.0000
  H   H33       1.0  0.49606  0.93649  0.35996  1.0000
  H   H34       1.0  0.44585  0.93641  0.36102  1.0000
  H   H35       1.0  0.42172  0.95435  0.20832  1.0000
  H   H36       1.0  0.37048  0.91176  0.20997  1.0000
  H   H37       1.0  0.56694  0.97507  0.20134  1.0000
  H   H38       1.0  0.57590  0.93261  0.19651  1.0000
  C   C57       1.0  0.32904  0.51252  0.33094  1.0000
  C   C58       1.0  0.32427  0.53476  0.28615  1.0000
  C   C59       1.0  0.29512  0.53227  0.28978  1.0000
  C   C60       1.0  0.21980  0.49273  0.27233  1.0000
  C   C61       1.0  0.19180  0.49302  0.27133  1.0000
  H   H39       1.0  0.22402  0.48092  0.22381  1.0000
  H   H40       1.0  0.29194  0.54851  0.25791  1.0000
  N   N5        1.0  0.17102  0.47651  0.20637  1.0000
  H   H41       1.0  0.17515  0.46484  0.16206  1.0000
  H   H42       1.0  0.15070  0.47419  0.20510  1.0000
  N   N6        1.0  0.34700  0.56083  0.24007  1.0000
  O   O1        1.0  0.35527  0.55406  0.16853  1.0000
  O   O2        1.0  0.37002  0.57734  0.28775  1.0000
  C   C62       1.0  0.56917  0.89388  0.33058  1.0000
  C   C63       1.0  0.54699  0.86689  0.28551  1.0000
  C   C64       1.0  0.54948  0.84022  0.28911  1.0000
  C   C65       1.0  0.58892  0.80438  0.27186  1.0000
  C   C66       1.0  0.58863  0.77609  0.27089  1.0000
  H   H43       1.0  0.60072  0.82038  0.22328  1.0000
  H   H44       1.0  0.53327  0.82081  0.25712  1.0000
  N   N7        1.0  0.60512  0.77178  0.20589  1.0000
  H   H45       1.0  0.61683  0.78757  0.16167  1.0000
  H   H46       1.0  0.60749  0.75380  0.20481  1.0000
  N   N8        1.0  0.52093  0.86353  0.23933  1.0000
  O   O3        1.0  0.52774  0.87861  0.16788  1.0000
  O   O4        1.0  0.50438  0.86999  0.28699  1.0000
  C   C67       1.0  0.18781  0.75262  0.33104  1.0000
  C   C68       1.0  0.21482  0.75738  0.28618  1.0000
  C   C69       1.0  0.24148  0.78653  0.28973  1.0000
  C   C70       1.0  0.27723  0.86187  0.27231  1.0000
  C   C71       1.0  0.30552  0.88988  0.27123  1.0000
  H   H47       1.0  0.26118  0.85766  0.22389  1.0000
  H   H48       1.0  0.26090  0.78970  0.25781  1.0000
  N   N9        1.0  0.30976  0.91066  0.20636  1.0000
  H   H49       1.0  0.29395  0.90655  0.16216  1.0000
  H   H50       1.0  0.32777  0.93099  0.20506  1.0000
  N   N10       1.0  0.21816  0.73464  0.24008  1.0000
  O   O5        1.0  0.20309  0.72635  0.16859  1.0000
  O   O6        1.0  0.21165  0.71164  0.28777  1.0000
  C   C72       1.0  0.72773  0.59313  0.33088  1.0000
  C   C73       1.0  0.73268  0.57104  0.28576  1.0000
  C   C74       1.0  0.76190  0.57368  0.28938  1.0000
  C   C75       1.0  0.83719  0.61346  0.27225  1.0000
  C   C76       1.0  0.86526  0.61332  0.27125  1.0000
  H   H51       1.0  0.83291  0.62523  0.22375  1.0000
  H   H52       1.0  0.76519  0.55752  0.25736  1.0000
  N   N11       1.0  0.88603  0.62991  0.20634  1.0000
  H   H53       1.0  0.88189  0.64159  0.16221  1.0000
  H   H54       1.0  0.90643  0.63238  0.20526  1.0000
  N   N12       1.0  0.71006  0.54493  0.23953  1.0000
  O   O7        1.0  0.70174  0.55168  0.16807  1.0000
  O   O8        1.0  0.68705  0.52830  0.28715  1.0000
  C   C77       1.0  0.48855  0.21196  0.33067  1.0000
  C   C78       1.0  0.51065  0.23899  0.28561  1.0000
  C   C79       1.0  0.50801  0.26556  0.28918  1.0000
  C   C80       1.0  0.46822  0.30105  0.27193  1.0000
  C   C81       1.0  0.46836  0.32927  0.27089  1.0000
  H   H55       1.0  0.45647  0.28500  0.22343  1.0000
  H   H56       1.0  0.52415  0.28499  0.25713  1.0000
  N   N13       1.0  0.45179  0.33344  0.20594  1.0000
  H   H57       1.0  0.44018  0.31762  0.16165  1.0000
  H   H58       1.0  0.44938  0.35139  0.20465  1.0000
  N   N14       1.0  0.53673  0.24243  0.23929  1.0000
  O   O9        1.0  0.52995  0.22733  0.16786  1.0000
  O   O10       1.0  0.55337  0.23608  0.28686  1.0000
  C   C82       1.0  0.86973  0.35393  0.33099  1.0000
  C   C83       1.0  0.84271  0.34899  0.28589  1.0000
  C   C84       1.0  0.81613  0.31977  0.28947  1.0000
  C   C85       1.0  0.78065  0.24447  0.27227  1.0000
  C   C86       1.0  0.75243  0.21639  0.27123  1.0000
  H   H59       1.0  0.79671  0.24875  0.22379  1.0000
  H   H60       1.0  0.79670  0.31648  0.25746  1.0000
  N   N15       1.0  0.74828  0.19563  0.20632  1.0000
  H   H61       1.0  0.76413  0.19978  0.16222  1.0000
  H   H62       1.0  0.73036  0.17523  0.20522  1.0000
  N   N16       1.0  0.83924  0.37162  0.23971  1.0000
  O   O11       1.0  0.85433  0.37995  0.16826  1.0000
  O   O12       1.0  0.84559  0.39461  0.28736  1.0000
  C   C87       1.0  0.01258  0.62854  0.32227  1.0000
  C   C88       1.0  0.04425  0.64449  0.32434  1.0000
  C   C89       1.0  0.05436  0.62346  0.33601  1.0000
  N   N17       1.0  0.02847  0.59565  0.34169  1.0000
  C   C90       1.0  0.00252  0.59741  0.33434  1.0000
  C   C91       1.0  0.97124  0.57371  0.33881  1.0000
  N   N18       1.0  0.97894  0.52837  0.34119  1.0000
  C   C92       1.0  0.96178  0.49746  0.34734  1.0000
  C   C93       1.0  0.93144  0.49084  0.35563  1.0000
  C   C94       1.0  0.93137  0.51817  0.35580  1.0000
  C   C95       1.0  0.97173  0.47557  0.34271  1.0000
  C   C96       1.0  0.00298  0.48325  0.33574  1.0000
  N   N19       1.0  0.02886  0.51108  0.34130  1.0000
  C   C97       1.0  0.05480  0.50930  0.33404  1.0000
  C   C98       1.0  0.04475  0.47819  0.32153  1.0000
  C   C99       1.0  0.01309  0.46223  0.32373  1.0000
  N   N20       1.0  0.07839  0.57832  0.34136  1.0000
  C   C100      1.0  0.09554  0.60923  0.34759  1.0000
  C   C101      1.0  0.08561  0.63113  0.34275  1.0000
  C   C102      1.0  0.10886  0.66281  0.34159  1.0000
  C   C103      1.0  0.12527  0.67746  0.42034  1.0000
  C   C104      1.0  0.15089  0.70726  0.41684  1.0000
  C   C105      1.0  0.16059  0.72335  0.33477  1.0000
  C   C106      1.0  0.11413  0.50954  0.40845  1.0000
  C   C107      1.0  0.13867  0.50361  0.40812  1.0000
  C   C108      1.0  0.15973  0.51331  0.33602  1.0000
  C   C109      1.0  0.94848  0.44388  0.34151  1.0000
  C   C110      1.0  0.89686  0.38327  0.33468  1.0000
  C   C111      1.0  0.90649  0.39941  0.41673  1.0000
  C   C112      1.0  0.93205  0.42924  0.42023  1.0000
  C   C113      1.0  0.94784  0.58199  0.33544  1.0000
  C   C114      1.0  0.94308  0.59708  0.40833  1.0000
  C   C115      1.0  0.91850  0.60294  0.40797  1.0000
  C   C116      1.0  0.89748  0.59321  0.33582  1.0000
  H   H63       1.0  0.91551  0.61360  0.46225  1.0000
  H   H64       1.0  0.95714  0.60333  0.46316  1.0000
  H   H65       1.0  0.05742  0.66776  0.31817  1.0000
  H   H66       1.0  0.02850  0.57695  0.35451  1.0000
  H   H67       1.0  0.02882  0.52971  0.35532  1.0000
  H   H68       1.0  0.91206  0.51988  0.36157  1.0000
  H   H69       1.0  0.91216  0.46977  0.36063  1.0000
  H   H70       1.0  0.93774  0.44077  0.47997  1.0000
  H   H71       1.0  0.89428  0.38997  0.47421  1.0000
  H   H72       1.0  0.99993  0.43896  0.31762  1.0000
  H   H73       1.0  0.10002  0.50325  0.46319  1.0000
  H   H74       1.0  0.14156  0.49286  0.46228  1.0000
  H   H75       1.0  0.16313  0.71667  0.47428  1.0000
  H   H76       1.0  0.11958  0.66593  0.48006  1.0000
  C   C117      1.0  0.43720  0.47711  0.32323  1.0000
  N   N21       1.0  0.48604  0.51019  0.34084  1.0000
  C   C118      1.0  0.48427  0.48247  0.33353  1.0000
  C   C119      1.0  0.50796  0.47488  0.33845  1.0000
  N   N22       1.0  0.55329  0.52790  0.34083  1.0000
  C   C120      1.0  0.58420  0.54166  0.34702  1.0000
  C   C121      1.0  0.59082  0.51794  0.35546  1.0000
  C   C122      1.0  0.56349  0.49054  0.35568  1.0000
  C   C123      1.0  0.60610  0.57349  0.34232  1.0000
  N   N23       1.0  0.57060  0.59513  0.34115  1.0000
  C   C124      1.0  0.57237  0.62285  0.33387  1.0000
  C   C125      1.0  0.61945  0.62821  0.32368  1.0000
  C   C126      1.0  0.47243  0.56365  0.34715  1.0000
  C   C127      1.0  0.45053  0.53181  0.34237  1.0000
  C   C128      1.0  0.41885  0.52338  0.34124  1.0000
  C   C129      1.0  0.40422  0.52514  0.42005  1.0000
  C   C130      1.0  0.37441  0.52095  0.41663  1.0000
  C   C131      1.0  0.35831  0.51457  0.33458  1.0000
  C   C132      1.0  0.57212  0.68196  0.40813  1.0000
  C   C133      1.0  0.57805  0.71243  0.40778  1.0000
  C   C134      1.0  0.63778  0.58193  0.34117  1.0000
  C   C135      1.0  0.69839  0.59092  0.33450  1.0000
  C   C136      1.0  0.68225  0.58447  0.41653  1.0000
  C   C137      1.0  0.65241  0.58018  0.41995  1.0000
  C   C138      1.0  0.49967  0.44319  0.33507  1.0000
  C   C139      1.0  0.48454  0.42337  0.40791  1.0000
  C   C140      1.0  0.47868  0.39292  0.40757  1.0000
  C   C141      1.0  0.48844  0.38161  0.33548  1.0000
  H   H77       1.0  0.46797  0.37928  0.46179  1.0000
  H   H78       1.0  0.47824  0.43117  0.46266  1.0000
  H   H79       1.0  0.41393  0.46701  0.31719  1.0000
  H   H80       1.0  0.50467  0.52885  0.35491  1.0000
  H   H81       1.0  0.55193  0.57642  0.35451  1.0000
  H   H82       1.0  0.56176  0.46953  0.36159  1.0000
  H   H83       1.0  0.61189  0.51974  0.36052  1.0000
  H   H84       1.0  0.64086  0.57433  0.47964  1.0000
  H   H85       1.0  0.69165  0.58167  0.47400  1.0000
  H   H86       1.0  0.64272  0.63831  0.31755  1.0000
  H   H87       1.0  0.57841  0.67415  0.46285  1.0000
  H   H88       1.0  0.58881  0.72609  0.46191  1.0000
  H   H89       1.0  0.36501  0.52378  0.47412  1.0000
  H   H90       1.0  0.41575  0.53097  0.47976  1.0000
  C   C142      1.0  0.60457  0.03742  0.32384  1.0000
  C   C143      1.0  0.59921  0.07914  0.33390  1.0000
  N   N24       1.0  0.55377  0.10274  0.34092  1.0000
  C   C144      1.0  0.54002  0.11990  0.34706  1.0000
  C   C145      1.0  0.56374  0.15025  0.35517  1.0000
  C   C146      1.0  0.59114  0.15031  0.35538  1.0000
  C   C147      1.0  0.50818  0.10997  0.34235  1.0000
  C   C148      1.0  0.45880  0.02688  0.33400  1.0000
  C   C149      1.0  0.45345  0.06860  0.32409  1.0000
  C   C150      1.0  0.51800  0.98612  0.34682  1.0000
  C   C151      1.0  0.54984  0.99606  0.34226  1.0000
  C   C152      1.0  0.55645  0.95639  0.41981  1.0000
  C   C153      1.0  0.56064  0.93077  0.41632  1.0000
  C   C154      1.0  0.39973  0.96750  0.40819  1.0000
  C   C155      1.0  0.36925  0.94298  0.40786  1.0000
  C   C156      1.0  0.49975  0.13321  0.34114  1.0000
  C   C157      1.0  0.49076  0.18483  0.33435  1.0000
  C   C158      1.0  0.49725  0.17521  0.41639  1.0000
  C   C159      1.0  0.50155  0.14967  0.41985  1.0000
  C   C160      1.0  0.63849  0.13382  0.33520  1.0000
  C   C161      1.0  0.65829  0.13856  0.40813  1.0000
  C   C162      1.0  0.68873  0.16315  0.40787  1.0000
  H   H91       1.0  0.70235  0.16612  0.46214  1.0000
  H   H92       1.0  0.65045  0.12450  0.46295  1.0000
  H   H93       1.0  0.61467  0.02425  0.31772  1.0000
  H   H94       1.0  0.61216  0.16962  0.36111  1.0000
  H   H95       1.0  0.56195  0.16953  0.36006  1.0000
  H   H96       1.0  0.50741  0.14400  0.47958  1.0000
  H   H97       1.0  0.50008  0.18746  0.47382  1.0000
  H   H98       1.0  0.44335  0.08177  0.31804  1.0000
  H   H99       1.0  0.40757  0.98158  0.46299  1.0000
  H   H100      1.0  0.35563  0.94005  0.46214  1.0000
  H   H101      1.0  0.55779  0.91853  0.47378  1.0000
  H   H102      1.0  0.55058  0.96207  0.47952  1.0000
  C   C163      1.0  0.27047  0.50841  0.33718  1.0000
  C   C164      1.0  0.27507  0.48632  0.38324  1.0000
  C   C165      1.0  0.30436  0.48886  0.37919  1.0000
  H   H103      1.0  0.30783  0.47307  0.41260  1.0000
  C   C166      1.0  0.24214  0.50820  0.33887  1.0000
  C   C167      1.0  0.18632  0.50993  0.33863  1.0000
  C   C168      1.0  0.20880  0.52546  0.40641  1.0000
  C   C169      1.0  0.23628  0.52425  0.40588  1.0000
  H   H104      1.0  0.25246  0.53581  0.45421  1.0000
  N   N25       1.0  0.20410  0.54283  0.47292  1.0000
  N   N26       1.0  0.25251  0.46305  0.43152  1.0000
  H   H105      1.0  0.25613  0.44822  0.46290  1.0000
  H   H106      1.0  0.23208  0.46040  0.43640  1.0000
  O   O13       1.0  0.20377  0.53279  0.55024  1.0000
  O   O14       1.0  0.22426  0.57072  0.46991  1.0000
  C   C170      1.0  0.57329  0.83942  0.33674  1.0000
  C   C171      1.0  0.59532  0.86609  0.38304  1.0000
  C   C172      1.0  0.59278  0.89285  0.37901  1.0000
  H   H107      1.0  0.60852  0.91209  0.41261  1.0000
  C   C173      1.0  0.57349  0.81130  0.33845  1.0000
  C   C174      1.0  0.57174  0.75374  0.33826  1.0000
  C   C175      1.0  0.55625  0.76074  0.40608  1.0000
  C   C176      1.0  0.55748  0.78943  0.40555  1.0000
  H   H108      1.0  0.54593  0.79409  0.45388  1.0000
  N   N27       1.0  0.53889  0.73871  0.47264  1.0000
  N   N28       1.0  0.61855  0.86680  0.43151  1.0000
  H   H109      1.0  0.63334  0.88524  0.46305  1.0000
  H   H110      1.0  0.62120  0.84902  0.43636  1.0000
  O   O15       1.0  0.54894  0.74845  0.54993  1.0000
  O   O16       1.0  0.51100  0.73099  0.46968  1.0000
  C   C177      1.0  0.24227  0.81119  0.33715  1.0000
  C   C178      1.0  0.21558  0.80660  0.38328  1.0000
  C   C179      1.0  0.18882  0.77730  0.37929  1.0000
  H   H111      1.0  0.16958  0.77385  0.41276  1.0000
  C   C180      1.0  0.27039  0.83952  0.33877  1.0000
  C   C181      1.0  0.32793  0.89534  0.33838  1.0000
  C   C182      1.0  0.32101  0.87285  0.40608  1.0000
  C   C183      1.0  0.29232  0.84537  0.40562  1.0000
  H   H112      1.0  0.28771  0.82917  0.45388  1.0000
  N   N29       1.0  0.34309  0.87754  0.47244  1.0000
  N   N30       1.0  0.21487  0.82916  0.43157  1.0000
  H   H113      1.0  0.19642  0.82555  0.46301  1.0000
  H   H114      1.0  0.23265  0.84959  0.43642  1.0000
  O   O17       1.0  0.33341  0.87785  0.54983  1.0000
  O   O18       1.0  0.35083  0.85739  0.46925  1.0000
  C   C184      1.0  0.78645  0.59756  0.33704  1.0000
  C   C185      1.0  0.78167  0.61950  0.38337  1.0000
  C   C186      1.0  0.75232  0.61682  0.37933  1.0000
  H   H115      1.0  0.74873  0.63251  0.41294  1.0000
  C   C187      1.0  0.81485  0.59791  0.33874  1.0000
  C   C188      1.0  0.87081  0.59646  0.33848  1.0000
  C   C189      1.0  0.84833  0.58085  0.40622  1.0000
  C   C190      1.0  0.82078  0.58193  0.40572  1.0000
  H   H116      1.0  0.80458  0.57030  0.45397  1.0000
  N   N31       1.0  0.85308  0.56352  0.47263  1.0000
  N   N32       1.0  0.80413  0.64279  0.43188  1.0000
  H   H117      1.0  0.80040  0.65753  0.46344  1.0000
  H   H118      1.0  0.82460  0.64554  0.43675  1.0000
  O   O19       1.0  0.85333  0.57350  0.55000  1.0000
  O   O20       1.0  0.83301  0.53560  0.46950  1.0000
  C   C191      1.0  0.48412  0.26625  0.33681  1.0000
  C   C192      1.0  0.46217  0.23954  0.38314  1.0000
  C   C193      1.0  0.46486  0.21287  0.37912  1.0000
  H   H119      1.0  0.44917  0.19361  0.41271  1.0000
  C   C194      1.0  0.48376  0.29429  0.33848  1.0000
  C   C195      1.0  0.48519  0.35169  0.33817  1.0000
  C   C196      1.0  0.50079  0.34485  0.40595  1.0000
  C   C197      1.0  0.49973  0.31623  0.40545  1.0000
  H   H120      1.0  0.51134  0.31168  0.45377  1.0000
  N   N33       1.0  0.51809  0.36696  0.47240  1.0000
  N   N34       1.0  0.43888  0.23873  0.43162  1.0000
  H   H121      1.0  0.42414  0.22027  0.46318  1.0000
  H   H122      1.0  0.43613  0.25645  0.43648  1.0000
  O   O21       1.0  0.50809  0.35723  0.54975  1.0000
  O   O22       1.0  0.54601  0.37481  0.46935  1.0000
  C   C198      1.0  0.81545  0.29521  0.33709  1.0000
  C   C199      1.0  0.84215  0.29998  0.38343  1.0000
  C   C200      1.0  0.86882  0.32934  0.37942  1.0000
  H   H123      1.0  0.88808  0.33292  0.41304  1.0000
  C   C201      1.0  0.78740  0.26681  0.33876  1.0000
  C   C202      1.0  0.72999  0.21084  0.33843  1.0000
  C   C203      1.0  0.73683  0.23332  0.40616  1.0000
  C   C204      1.0  0.76545  0.26087  0.40570  1.0000
  H   H124      1.0  0.76999  0.27706  0.45395  1.0000
  N   N35       1.0  0.71471  0.22856  0.47254  1.0000
  N   N36       1.0  0.84296  0.27752  0.43191  1.0000
  H   H125      1.0  0.86142  0.28125  0.46348  1.0000
  H   H126      1.0  0.82524  0.25705  0.43676  1.0000
  O   O23       1.0  0.72441  0.22831  0.54993  1.0000
  O   O24       1.0  0.70686  0.24863  0.46938  1.0000
