data_image0
_chemical_formula_structural       C2H2C4HNO2CHC2HCHC16H10C17H12C2H2C2H2C2H2C2H2C2H2C10H8C13H9C8H2N2O4C8H2N2O4C4HNO2
_chemical_formula_sum              "C96 H60 N6 O12"
_cell_length_a       44.8635
_cell_length_b       44.8383
_cell_length_c       14.8677
_cell_angle_alpha    90
_cell_angle_beta     90
_cell_angle_gamma    120.03

_space_group_name_H-M_alt    "P 1"
_space_group_IT_number       1

loop_
  _space_group_symop_operation_xyz
  'x, y, z'

loop_
  _atom_site_type_symbol
  _atom_site_label
  _atom_site_symmetry_multiplicity
  _atom_site_fract_x
  _atom_site_fract_y
  _atom_site_fract_z
  _atom_site_occupancy
  C   C1        1.0  0.08009  0.54822  0.26819  1.0000
  C   C2        1.0  0.04388  0.53111  0.26898  1.0000
  H   H1        1.0  0.09281  0.56089  0.21096  1.0000
  H   H2        1.0  0.03140  0.53242  0.21275  1.0000
  C   C3        1.0  0.02496  0.51309  0.34612  1.0000
  C   C4        1.0  0.04328  0.51221  0.42316  1.0000
  C   C5        1.0  0.07973  0.52909  0.42073  1.0000
  C   C6        1.0  0.09867  0.54733  0.34391  1.0000
  H   H3        1.0  0.09257  0.52836  0.47688  1.0000
  N   N1        1.0  0.02495  0.49379  0.50071  1.0000
  O   O1        1.0  0.03275  0.51321  0.56812  1.0000
  O   O2        1.0  0.03052  0.46963  0.51873  1.0000
  C   C7        1.0  0.15287  0.54688  0.37071  1.0000
  H   H4        1.0  0.13928  0.52146  0.38884  1.0000
  C   C8        1.0  0.13542  0.56432  0.34337  1.0000
  C   C9        1.0  0.15552  0.59935  0.31826  1.0000
  H   H5        1.0  0.14388  0.61310  0.30013  1.0000
  C   C10       1.0  0.18908  0.56387  0.37319  1.0000
  H   H6        1.0  0.20061  0.55025  0.39370  1.0000
  C   C11       1.0  0.19176  0.61647  0.32178  1.0000
  C   C12       1.0  0.45255  0.85550  0.31579  1.0000
  C   C13       1.0  0.43358  0.81923  0.31924  1.0000
  C   C14       1.0  0.38045  0.74315  0.29930  1.0000
  C   C15       1.0  0.36029  0.70754  0.30749  1.0000
  C   C16       1.0  0.32391  0.69107  0.30707  1.0000
  C   C17       1.0  0.30330  0.65473  0.30740  1.0000
  C   C18       1.0  0.31975  0.63480  0.30658  1.0000
  C   C19       1.0  0.35606  0.65054  0.30702  1.0000
  C   C20       1.0  0.37600  0.68694  0.30666  1.0000
  C   C21       1.0  0.37149  0.63038  0.29870  1.0000
  C   C22       1.0  0.41136  0.61186  0.34942  1.0000
  C   C23       1.0  0.39447  0.57730  0.31880  1.0000
  C   C24       1.0  0.41177  0.55835  0.31529  1.0000
  C   C25       1.0  0.26769  0.63933  0.29935  1.0000
  C   C26       1.0  0.20925  0.59898  0.34881  1.0000
  H   H7        1.0  0.47762  0.86721  0.29469  1.0000
  H   H8        1.0  0.44555  0.80587  0.30052  1.0000
  H   H9        1.0  0.40232  0.69861  0.30338  1.0000
  H   H10       1.0  0.31227  0.70575  0.30413  1.0000
  H   H11       1.0  0.30508  0.60846  0.30327  1.0000
  H   H12       1.0  0.39836  0.53322  0.29464  1.0000
  H   H13       1.0  0.36909  0.56527  0.30043  1.0000
  H   H14       1.0  0.36468  0.61472  0.24586  1.0000
  H   H15       1.0  0.39603  0.75203  0.24631  1.0000
  H   H16       1.0  0.25884  0.64675  0.24776  1.0000
  C   C27       1.0  0.56085  0.15347  0.34686  1.0000
  C   C28       1.0  0.58030  0.18975  0.34903  1.0000
  C   C29       1.0  0.63234  0.26551  0.30307  1.0000
  C   C30       1.0  0.65292  0.30127  0.30946  1.0000
  C   C31       1.0  0.68934  0.31778  0.30900  1.0000
  C   C32       1.0  0.71014  0.35412  0.30964  1.0000
  C   C33       1.0  0.69365  0.37404  0.30892  1.0000
  C   C34       1.0  0.65734  0.35850  0.30943  1.0000
  C   C35       1.0  0.63741  0.32207  0.30877  1.0000
  C   C36       1.0  0.64219  0.37909  0.30300  1.0000
  C   C37       1.0  0.59945  0.39465  0.34446  1.0000
  C   C38       1.0  0.61841  0.43106  0.34907  1.0000
  C   C39       1.0  0.60158  0.45048  0.34691  1.0000
  C   C40       1.0  0.74589  0.36928  0.30339  1.0000
  C   C41       1.0  0.80421  0.41207  0.34462  1.0000
  C   C42       1.0  0.82423  0.44826  0.33555  1.0000
  C   C43       1.0  0.86043  0.46496  0.33338  1.0000
  H   H17       1.0  0.53463  0.14172  0.35253  1.0000
  H   H18       1.0  0.56765  0.20331  0.35612  1.0000
  H   H19       1.0  0.61110  0.31044  0.30578  1.0000
  H   H20       1.0  0.70094  0.30307  0.30617  1.0000
  H   H21       1.0  0.70836  0.40037  0.30598  1.0000
  H   H22       1.0  0.61604  0.47671  0.35277  1.0000
  H   H23       1.0  0.64462  0.44373  0.35637  1.0000
  H   H24       1.0  0.87403  0.49119  0.32658  1.0000
  H   H25       1.0  0.81261  0.46290  0.33106  1.0000
  H   H26       1.0  0.65242  0.39842  0.25904  1.0000
  H   H27       1.0  0.61306  0.25640  0.25898  1.0000
  H   H28       1.0  0.75500  0.35891  0.25990  1.0000
  C   C44       1.0  0.53968  0.49944  0.27919  1.0000
  C   C45       1.0  0.55626  0.47984  0.27907  1.0000
  H   H29       1.0  0.54650  0.51830  0.23169  1.0000
  H   H30       1.0  0.57428  0.48466  0.23041  1.0000
  C   C46       1.0  0.46268  0.53384  0.26849  1.0000
  C   C47       1.0  0.47986  0.51481  0.26913  1.0000
  H   H31       1.0  0.44993  0.53378  0.21132  1.0000
  H   H32       1.0  0.47846  0.50095  0.21294  1.0000
  C   C48       1.0  0.51183  0.04251  0.27948  1.0000
  C   C49       1.0  0.53148  0.07872  0.27929  1.0000
  H   H33       1.0  0.49302  0.03048  0.23188  1.0000
  H   H34       1.0  0.52674  0.09193  0.23048  1.0000
  C   C50       1.0  0.47715  0.93097  0.26919  1.0000
  C   C51       1.0  0.49624  0.96721  0.26974  1.0000
  H   H35       1.0  0.47718  0.91825  0.21204  1.0000
  H   H36       1.0  0.51008  0.97965  0.21352  1.0000
  C   C52       1.0  0.96865  0.47101  0.28058  1.0000
  C   C53       1.0  0.93246  0.45448  0.28055  1.0000
  H   H37       1.0  0.98061  0.46379  0.23391  1.0000
  H   H38       1.0  0.91919  0.43608  0.23275  1.0000
  C   C54       1.0  0.43801  0.87554  0.34473  1.0000
  C   C55       1.0  0.39911  0.80157  0.35037  1.0000
  C   C56       1.0  0.38452  0.82163  0.37865  1.0000
  C   C57       1.0  0.40359  0.85787  0.37598  1.0000
  C   C58       1.0  0.37984  0.76569  0.35806  1.0000
  C   C59       1.0  0.39477  0.63111  0.35720  1.0000
  C   C60       1.0  0.44607  0.62655  0.37726  1.0000
  C   C61       1.0  0.44639  0.57299  0.34385  1.0000
  C   C62       1.0  0.46322  0.60749  0.37464  1.0000
  C   C63       1.0  0.24509  0.61539  0.35654  1.0000
  H   H39       1.0  0.39193  0.87130  0.39680  1.0000
  H   H40       1.0  0.35973  0.80999  0.40210  1.0000
  H   H41       1.0  0.20523  0.64212  0.30606  1.0000
  H   H42       1.0  0.45928  0.65140  0.40035  1.0000
  H   H43       1.0  0.48836  0.61921  0.39515  1.0000
  H   H44       1.0  0.40139  0.64723  0.40916  1.0000
  H   H45       1.0  0.36380  0.75618  0.41015  1.0000
  H   H46       1.0  0.25451  0.60814  0.40735  1.0000
  C   C64       1.0  0.57716  0.13348  0.34142  1.0000
  C   C65       1.0  0.61669  0.20717  0.34480  1.0000
  C   C66       1.0  0.63296  0.18720  0.33790  1.0000
  C   C67       1.0  0.61351  0.15097  0.33564  1.0000
  C   C68       1.0  0.63671  0.24285  0.35266  1.0000
  C   C69       1.0  0.61510  0.37465  0.35239  1.0000
  C   C70       1.0  0.56320  0.37833  0.33725  1.0000
  C   C71       1.0  0.56527  0.43412  0.34109  1.0000
  C   C72       1.0  0.54644  0.39776  0.33499  1.0000
  C   C73       1.0  0.76856  0.39651  0.35238  1.0000
  C   C74       1.0  0.82155  0.39308  0.35128  1.0000
  C   C75       1.0  0.87784  0.44610  0.34145  1.0000
  C   C76       1.0  0.85779  0.40983  0.34922  1.0000
  H   H47       1.0  0.62622  0.13741  0.33054  1.0000
  H   H48       1.0  0.65926  0.19887  0.33513  1.0000
  H   H49       1.0  0.80793  0.36691  0.35987  1.0000
  H   H50       1.0  0.54858  0.35203  0.33424  1.0000
  H   H51       1.0  0.52016  0.38502  0.32965  1.0000
  H   H52       1.0  0.86949  0.39537  0.35643  1.0000
  H   H53       1.0  0.60473  0.35526  0.39613  1.0000
  H   H54       1.0  0.65604  0.25189  0.39654  1.0000
  H   H55       1.0  0.75958  0.40703  0.39574  1.0000
  C   C77       1.0  0.54802  0.45363  0.34364  1.0000
  C   C78       1.0  0.52271  0.44765  0.40977  1.0000
  C   C79       1.0  0.50629  0.46766  0.40907  1.0000
  C   C80       1.0  0.51456  0.49383  0.34460  1.0000
  C   C81       1.0  0.49806  0.51406  0.34601  1.0000
  C   C82       1.0  0.49906  0.53339  0.42292  1.0000
  C   C83       1.0  0.48199  0.55278  0.42074  1.0000
  C   C84       1.0  0.46355  0.55334  0.34418  1.0000
  H   H56       1.0  0.48276  0.56633  0.47696  1.0000
  H   H57       1.0  0.48795  0.46291  0.45670  1.0000
  N   N2        1.0  0.51786  0.53387  0.50004  1.0000
  N   N3        1.0  0.51500  0.42264  0.47765  1.0000
  O   O3        1.0  0.49879  0.52243  0.56810  1.0000
  O   O4        1.0  0.48378  0.39964  0.47612  1.0000
  O   O5        1.0  0.54200  0.56374  0.51704  1.0000
  O   O6        1.0  0.52212  0.43604  0.55460  1.0000
  C   C85       1.0  0.55761  0.09669  0.34399  1.0000
  C   C86       1.0  0.56348  0.07734  0.41032  1.0000
  C   C87       1.0  0.54344  0.04088  0.40967  1.0000
  C   C88       1.0  0.51733  0.02298  0.34510  1.0000
  C   C89       1.0  0.49704  0.98622  0.34658  1.0000
  C   C90       1.0  0.47772  0.96793  0.42353  1.0000
  C   C91       1.0  0.45830  0.93144  0.42145  1.0000
  C   C92       1.0  0.45768  0.91237  0.34494  1.0000
  H   H58       1.0  0.44476  0.91868  0.47772  1.0000
  H   H59       1.0  0.54811  0.02729  0.45744  1.0000
  N   N4        1.0  0.47726  0.98630  0.50058  1.0000
  N   N5        1.0  0.58842  0.09464  0.47836  1.0000
  O   O7        1.0  0.48867  0.97867  0.56870  1.0000
  O   O8        1.0  0.61137  0.08638  0.47717  1.0000
  O   O9        1.0  0.44742  0.98060  0.51752  1.0000
  O   O10       1.0  0.57494  0.08840  0.55520  1.0000
  C   C93       1.0  0.91461  0.46331  0.34395  1.0000
  C   C94       1.0  0.93405  0.48915  0.40886  1.0000
  C   C95       1.0  0.97048  0.50548  0.40819  1.0000
  C   C96       1.0  0.98825  0.49665  0.34482  1.0000
  H   H60       1.0  0.98416  0.52418  0.45498  1.0000
  N   N6        1.0  0.91686  0.49753  0.47553  1.0000
  O   O11       1.0  0.92520  0.52876  0.47184  1.0000
  O   O12       1.0  0.92313  0.49105  0.55322  1.0000
