data_image0
_chemical_formula_structural       C3H2C2HC2O2C3NC2NHONHC3NC2NHOHNHC3HC4H2C2O2C3H2CH3NHC3H2CH2NHC3H2C2HC2O2C3NC2NHONHC3NC2NHOHNHC3HC4H2C2O2C3H2CH3NHC3H2CH2NHC3H2C2HC2O2C3NC2NHONHC3NC2NHOHNHC3HC4H2C2O2C3H2CH3NHC3H2CH2NHC3H2C2HC2O2C3NC2NHONHC3NC2NHOHNHC3HC4H2C2O2C3H2CH3NHC3H2CH2NH
_chemical_formula_sum              "C136 H88 O24 N32"
_cell_length_a       30.4956
_cell_length_b       30.4956
_cell_length_c       15.0569
_cell_angle_alpha    90
_cell_angle_beta     90
_cell_angle_gamma    90

_space_group_name_H-M_alt    "P 1"
_space_group_IT_number       1

loop_
  _space_group_symop_operation_xyz
  'x, y, z'

loop_
  _atom_site_type_symbol
  _atom_site_label
  _atom_site_symmetry_multiplicity
  _atom_site_fract_x
  _atom_site_fract_y
  _atom_site_fract_z
  _atom_site_occupancy
  C   C1        1.0  0.48070  0.43032  0.32040  1.0000
  C   C2        1.0  0.44630  0.39982  0.30782  1.0000
  C   C3        1.0  0.40345  0.41689  0.30244  1.0000
  H   H1        1.0  0.01188  0.41837  0.32252  1.0000
  H   H2        1.0  0.37830  0.39538  0.29240  1.0000
  C   C4        1.0  0.03990  0.08226  0.33169  1.0000
  C   C5        1.0  0.00522  0.05180  0.32035  1.0000
  H   H3        1.0  0.47883  0.06194  0.28413  1.0000
  C   C6        1.0  0.03754  0.12645  0.30255  1.0000
  C   C7        1.0  0.45212  0.35362  0.30379  1.0000
  O   O1        1.0  0.07561  0.14965  0.29880  1.0000
  O   O2        1.0  0.41525  0.32843  0.30513  1.0000
  C   C8        1.0  0.02003  0.21791  0.22366  1.0000
  C   C9        1.0  0.01946  0.26461  0.22480  1.0000
  C   C10       1.0  0.99491  0.28761  0.28984  1.0000
  N   N1        1.0  0.03998  0.28619  0.15740  1.0000
  C   C11       1.0  0.06077  0.26557  0.08966  1.0000
  C   C12       1.0  0.05999  0.21951  0.08654  1.0000
  N   N2        1.0  0.03998  0.19766  0.15389  1.0000
  H   H4        1.0  0.07540  0.28343  0.04055  1.0000
  O   O3        1.0  0.07940  0.19703  0.01863  1.0000
  N   N3        1.0  0.99080  0.33234  0.28821  1.0000
  H   H5        1.0  0.01353  0.34921  0.25841  1.0000
  C   C13       1.0  0.26168  0.01108  0.24767  1.0000
  C   C14       1.0  0.21586  0.00565  0.25997  1.0000
  C   C15       1.0  0.19588  0.01443  0.34374  1.0000
  N   N4        1.0  0.19265  0.98995  0.18933  1.0000
  C   C16       1.0  0.21028  0.98003  0.10922  1.0000
  C   C17       1.0  0.25550  0.98611  0.09709  1.0000
  N   N5        1.0  0.27931  0.00076  0.16722  1.0000
  H   H6        1.0  0.19098  0.96794  0.05951  1.0000
  O   O4        1.0  0.27524  0.97359  0.01972  1.0000
  H   H7        1.0  0.31971  0.02578  0.00734  1.0000
  N   N6        1.0  0.15236  0.00432  0.35589  1.0000
  H   H8        1.0  0.13774  0.99137  0.30442  1.0000
  C   C18       1.0  0.47345  0.47633  0.32885  1.0000
  C   C19       1.0  0.39345  0.46192  0.30936  1.0000
  C   C20       1.0  0.42913  0.49079  0.32254  1.0000
  H   H9        1.0  0.42218  0.02317  0.33098  1.0000
  C   C21       1.0  0.00851  0.00670  0.34445  1.0000
  C   C22       1.0  0.04883  0.99343  0.38357  1.0000
  C   C23       1.0  0.08263  0.02349  0.40237  1.0000
  C   C24       1.0  0.07841  0.06709  0.37318  1.0000
  H   H10       1.0  0.05336  0.46186  0.40426  1.0000
  H   H11       1.0  0.10435  0.08799  0.38245  1.0000
  C   C25       1.0  0.12482  0.00931  0.42692  1.0000
  C   C26       1.0  0.34896  0.47540  0.30225  1.0000
  O   O5        1.0  0.31904  0.44323  0.28570  1.0000
  O   O6        1.0  0.13853  0.02773  0.50370  1.0000
  C   C27       1.0  0.99718  0.19342  0.28915  1.0000
  C   C28       1.0  0.97269  0.26249  0.35499  1.0000
  C   C29       1.0  0.97257  0.21662  0.35310  1.0000
  H   H12       1.0  0.95667  0.20022  0.40294  1.0000
  H   H13       1.0  0.95650  0.27760  0.40600  1.0000
  C   C30       1.0  0.04940  0.18640  0.61475  1.0000
  H   H14       1.0  0.06745  0.16868  0.56359  1.0000
  H   H15       1.0  0.03557  0.21594  0.58461  1.0000
  H   H16       1.0  0.52284  0.16529  0.63820  1.0000
  N   N7        1.0  0.99889  0.14887  0.29670  1.0000
  H   H17       1.0  0.97394  0.13479  0.32561  1.0000
  C   C31       1.0  0.28880  0.02479  0.31878  1.0000
  C   C32       1.0  0.22289  0.03464  0.40883  1.0000
  C   C33       1.0  0.26815  0.04076  0.39600  1.0000
  H   H18       1.0  0.28662  0.05126  0.44854  1.0000
  H   H19       1.0  0.21104  0.04352  0.46916  1.0000
  C   C34       1.0  0.29355  0.00947  0.63698  1.0000
  H   H20       1.0  0.30761  0.99630  0.57602  1.0000
  H   H21       1.0  0.26836  0.53339  0.61911  1.0000
  N   N8        1.0  0.33280  0.01625  0.32124  1.0000
  H   H22       1.0  0.35070  0.03428  0.36040  1.0000
  C   C35       1.0  0.48070  0.93032  0.32040  1.0000
  C   C36       1.0  0.44630  0.89982  0.30782  1.0000
  C   C37       1.0  0.40345  0.91689  0.30244  1.0000
  H   H23       1.0  0.01188  0.91837  0.32252  1.0000
  H   H24       1.0  0.37830  0.89538  0.29240  1.0000
  C   C38       1.0  0.03990  0.58226  0.33169  1.0000
  C   C39       1.0  0.00522  0.55180  0.32035  1.0000
  H   H25       1.0  0.47883  0.56194  0.28413  1.0000
  C   C40       1.0  0.03754  0.62645  0.30255  1.0000
  C   C41       1.0  0.45212  0.85362  0.30379  1.0000
  O   O7        1.0  0.07561  0.64965  0.29880  1.0000
  O   O8        1.0  0.41525  0.82843  0.30513  1.0000
  C   C42       1.0  0.02003  0.71791  0.22366  1.0000
  C   C43       1.0  0.01946  0.76462  0.22480  1.0000
  C   C44       1.0  0.99491  0.78761  0.28984  1.0000
  N   N9        1.0  0.03998  0.78618  0.15740  1.0000
  C   C45       1.0  0.06077  0.76558  0.08966  1.0000
  C   C46       1.0  0.05999  0.71951  0.08654  1.0000
  N   N10       1.0  0.03998  0.69766  0.15389  1.0000
  H   H26       1.0  0.07540  0.78343  0.04055  1.0000
  O   O9        1.0  0.07940  0.69702  0.01863  1.0000
  N   N11       1.0  0.99080  0.83234  0.28821  1.0000
  H   H27       1.0  0.01353  0.84921  0.25841  1.0000
  C   C47       1.0  0.26168  0.51108  0.24767  1.0000
  C   C48       1.0  0.21586  0.50565  0.25997  1.0000
  C   C49       1.0  0.19588  0.51443  0.34374  1.0000
  N   N12       1.0  0.19265  0.48994  0.18933  1.0000
  C   C50       1.0  0.21028  0.48003  0.10922  1.0000
  C   C51       1.0  0.25550  0.48611  0.09709  1.0000
  N   N13       1.0  0.27931  0.50076  0.16722  1.0000
  H   H28       1.0  0.19098  0.46794  0.05951  1.0000
  O   O10       1.0  0.27524  0.47360  0.01972  1.0000
  H   H29       1.0  0.31971  0.52579  0.00734  1.0000
  N   N14       1.0  0.15236  0.50432  0.35589  1.0000
  H   H30       1.0  0.13774  0.49136  0.30442  1.0000
  C   C52       1.0  0.47345  0.97633  0.32885  1.0000
  C   C53       1.0  0.39345  0.96192  0.30936  1.0000
  C   C54       1.0  0.42913  0.99079  0.32254  1.0000
  H   H31       1.0  0.42218  0.52317  0.33098  1.0000
  C   C55       1.0  0.00851  0.50670  0.34445  1.0000
  C   C56       1.0  0.04883  0.49342  0.38357  1.0000
  C   C57       1.0  0.08263  0.52349  0.40237  1.0000
  C   C58       1.0  0.07841  0.56709  0.37318  1.0000
  H   H32       1.0  0.05336  0.96185  0.40426  1.0000
  H   H33       1.0  0.10435  0.58799  0.38245  1.0000
  C   C59       1.0  0.12482  0.50931  0.42692  1.0000
  C   C60       1.0  0.34896  0.97540  0.30225  1.0000
  O   O11       1.0  0.31904  0.94323  0.28570  1.0000
  O   O12       1.0  0.13853  0.52773  0.50370  1.0000
  C   C61       1.0  0.99718  0.69342  0.28915  1.0000
  C   C62       1.0  0.97269  0.76249  0.35499  1.0000
  C   C63       1.0  0.97257  0.71662  0.35310  1.0000
  H   H34       1.0  0.95667  0.70022  0.40294  1.0000
  H   H35       1.0  0.95650  0.77760  0.40600  1.0000
  C   C64       1.0  0.04940  0.68640  0.61475  1.0000
  H   H36       1.0  0.06745  0.66868  0.56359  1.0000
  H   H37       1.0  0.03557  0.71595  0.58461  1.0000
  H   H38       1.0  0.52284  0.66529  0.63820  1.0000
  N   N15       1.0  0.99889  0.64887  0.29670  1.0000
  H   H39       1.0  0.97394  0.63480  0.32561  1.0000
  C   C65       1.0  0.28880  0.52479  0.31878  1.0000
  C   C66       1.0  0.22289  0.53464  0.40883  1.0000
  C   C67       1.0  0.26815  0.54076  0.39600  1.0000
  H   H40       1.0  0.28662  0.55127  0.44854  1.0000
  H   H41       1.0  0.21104  0.54352  0.46916  1.0000
  C   C68       1.0  0.29355  0.50947  0.63698  1.0000
  H   H42       1.0  0.30761  0.49630  0.57602  1.0000
  H   H43       1.0  0.26836  0.03339  0.61911  1.0000
  N   N16       1.0  0.33280  0.51625  0.32124  1.0000
  H   H44       1.0  0.35070  0.53428  0.36040  1.0000
  C   C69       1.0  0.98071  0.43032  0.32040  1.0000
  C   C70       1.0  0.94631  0.39982  0.30782  1.0000
  C   C71       1.0  0.90345  0.41689  0.30244  1.0000
  H   H45       1.0  0.51188  0.41837  0.32252  1.0000
  H   H46       1.0  0.87830  0.39538  0.29240  1.0000
  C   C72       1.0  0.53990  0.08226  0.33169  1.0000
  C   C73       1.0  0.50522  0.05180  0.32035  1.0000
  H   H47       1.0  0.97883  0.06194  0.28413  1.0000
  C   C74       1.0  0.53754  0.12645  0.30255  1.0000
  C   C75       1.0  0.95212  0.35362  0.30379  1.0000
  O   O13       1.0  0.57561  0.14965  0.29880  1.0000
  O   O14       1.0  0.91525  0.32843  0.30513  1.0000
  C   C76       1.0  0.52002  0.21791  0.22366  1.0000
  C   C77       1.0  0.51946  0.26461  0.22480  1.0000
  C   C78       1.0  0.49491  0.28761  0.28984  1.0000
  N   N17       1.0  0.53998  0.28619  0.15740  1.0000
  C   C79       1.0  0.56077  0.26557  0.08966  1.0000
  C   C80       1.0  0.55999  0.21951  0.08654  1.0000
  N   N18       1.0  0.53998  0.19766  0.15389  1.0000
  H   H48       1.0  0.57540  0.28343  0.04055  1.0000
  O   O15       1.0  0.57940  0.19703  0.01863  1.0000
  N   N19       1.0  0.49080  0.33234  0.28821  1.0000
  H   H49       1.0  0.51354  0.34921  0.25841  1.0000
  C   C81       1.0  0.76168  0.01108  0.24767  1.0000
  C   C82       1.0  0.71586  0.00565  0.25997  1.0000
  C   C83       1.0  0.69588  0.01443  0.34374  1.0000
  N   N20       1.0  0.69265  0.98995  0.18933  1.0000
  C   C84       1.0  0.71028  0.98003  0.10922  1.0000
  C   C85       1.0  0.75549  0.98611  0.09709  1.0000
  N   N21       1.0  0.77931  0.00076  0.16722  1.0000
  H   H50       1.0  0.69098  0.96794  0.05951  1.0000
  O   O16       1.0  0.77524  0.97359  0.01972  1.0000
  H   H51       1.0  0.81971  0.02578  0.00734  1.0000
  N   N22       1.0  0.65236  0.00432  0.35589  1.0000
  H   H52       1.0  0.63774  0.99137  0.30442  1.0000
  C   C86       1.0  0.97345  0.47633  0.32885  1.0000
  C   C87       1.0  0.89345  0.46192  0.30936  1.0000
  C   C88       1.0  0.92913  0.49079  0.32254  1.0000
  H   H53       1.0  0.92218  0.02317  0.33098  1.0000
  C   C89       1.0  0.50851  0.00670  0.34445  1.0000
  C   C90       1.0  0.54883  0.99343  0.38357  1.0000
  C   C91       1.0  0.58263  0.02349  0.40237  1.0000
  C   C92       1.0  0.57841  0.06709  0.37318  1.0000
  H   H54       1.0  0.55336  0.46186  0.40426  1.0000
  H   H55       1.0  0.60435  0.08799  0.38245  1.0000
  C   C93       1.0  0.62482  0.00931  0.42692  1.0000
  C   C94       1.0  0.84896  0.47540  0.30225  1.0000
  O   O17       1.0  0.81904  0.44323  0.28570  1.0000
  O   O18       1.0  0.63853  0.02773  0.50370  1.0000
  C   C95       1.0  0.49718  0.19342  0.28915  1.0000
  C   C96       1.0  0.47269  0.26249  0.35499  1.0000
  C   C97       1.0  0.47257  0.21662  0.35310  1.0000
  H   H56       1.0  0.45667  0.20022  0.40294  1.0000
  H   H57       1.0  0.45650  0.27760  0.40600  1.0000
  C   C98       1.0  0.54940  0.18640  0.61475  1.0000
  H   H58       1.0  0.56745  0.16868  0.56359  1.0000
  H   H59       1.0  0.53557  0.21594  0.58461  1.0000
  H   H60       1.0  0.02284  0.16529  0.63820  1.0000
  N   N23       1.0  0.49889  0.14887  0.29670  1.0000
  H   H61       1.0  0.47394  0.13479  0.32561  1.0000
  C   C99       1.0  0.78879  0.02479  0.31878  1.0000
  C   C100      1.0  0.72289  0.03464  0.40883  1.0000
  C   C101      1.0  0.76815  0.04076  0.39600  1.0000
  H   H62       1.0  0.78662  0.05126  0.44854  1.0000
  H   H63       1.0  0.71104  0.04352  0.46916  1.0000
  C   C102      1.0  0.79355  0.00947  0.63698  1.0000
  H   H64       1.0  0.80761  0.99630  0.57602  1.0000
  H   H65       1.0  0.76836  0.53339  0.61911  1.0000
  N   N24       1.0  0.83279  0.01625  0.32124  1.0000
  H   H66       1.0  0.85070  0.03428  0.36040  1.0000
  C   C103      1.0  0.98071  0.93032  0.32040  1.0000
  C   C104      1.0  0.94631  0.89982  0.30782  1.0000
  C   C105      1.0  0.90345  0.91689  0.30244  1.0000
  H   H67       1.0  0.51188  0.91837  0.32252  1.0000
  H   H68       1.0  0.87830  0.89538  0.29240  1.0000
  C   C106      1.0  0.53990  0.58226  0.33169  1.0000
  C   C107      1.0  0.50522  0.55180  0.32035  1.0000
  H   H69       1.0  0.97883  0.56194  0.28413  1.0000
  C   C108      1.0  0.53754  0.62645  0.30255  1.0000
  C   C109      1.0  0.95212  0.85362  0.30379  1.0000
  O   O19       1.0  0.57561  0.64965  0.29880  1.0000
  O   O20       1.0  0.91525  0.82843  0.30513  1.0000
  C   C110      1.0  0.52002  0.71791  0.22366  1.0000
  C   C111      1.0  0.51946  0.76462  0.22480  1.0000
  C   C112      1.0  0.49491  0.78761  0.28984  1.0000
  N   N25       1.0  0.53998  0.78618  0.15740  1.0000
  C   C113      1.0  0.56077  0.76558  0.08966  1.0000
  C   C114      1.0  0.55999  0.71951  0.08654  1.0000
  N   N26       1.0  0.53998  0.69766  0.15389  1.0000
  H   H70       1.0  0.57540  0.78343  0.04055  1.0000
  O   O21       1.0  0.57940  0.69702  0.01863  1.0000
  N   N27       1.0  0.49080  0.83234  0.28821  1.0000
  H   H71       1.0  0.51354  0.84921  0.25841  1.0000
  C   C115      1.0  0.76168  0.51108  0.24767  1.0000
  C   C116      1.0  0.71586  0.50565  0.25997  1.0000
  C   C117      1.0  0.69588  0.51443  0.34374  1.0000
  N   N28       1.0  0.69265  0.48994  0.18933  1.0000
  C   C118      1.0  0.71028  0.48003  0.10922  1.0000
  C   C119      1.0  0.75549  0.48611  0.09709  1.0000
  N   N29       1.0  0.77931  0.50076  0.16722  1.0000
  H   H72       1.0  0.69098  0.46794  0.05951  1.0000
  O   O22       1.0  0.77524  0.47360  0.01972  1.0000
  H   H73       1.0  0.81971  0.52579  0.00734  1.0000
  N   N30       1.0  0.65236  0.50432  0.35589  1.0000
  H   H74       1.0  0.63774  0.49136  0.30442  1.0000
  C   C120      1.0  0.97345  0.97633  0.32885  1.0000
  C   C121      1.0  0.89345  0.96192  0.30936  1.0000
  C   C122      1.0  0.92913  0.99079  0.32254  1.0000
  H   H75       1.0  0.92218  0.52317  0.33098  1.0000
  C   C123      1.0  0.50851  0.50670  0.34445  1.0000
  C   C124      1.0  0.54883  0.49342  0.38357  1.0000
  C   C125      1.0  0.58263  0.52349  0.40237  1.0000
  C   C126      1.0  0.57841  0.56709  0.37318  1.0000
  H   H76       1.0  0.55336  0.96185  0.40426  1.0000
  H   H77       1.0  0.60435  0.58799  0.38245  1.0000
  C   C127      1.0  0.62482  0.50931  0.42692  1.0000
  C   C128      1.0  0.84896  0.97540  0.30225  1.0000
  O   O23       1.0  0.81904  0.94323  0.28570  1.0000
  O   O24       1.0  0.63853  0.52773  0.50370  1.0000
  C   C129      1.0  0.49718  0.69342  0.28915  1.0000
  C   C130      1.0  0.47269  0.76249  0.35499  1.0000
  C   C131      1.0  0.47257  0.71662  0.35310  1.0000
  H   H78       1.0  0.45667  0.70022  0.40294  1.0000
  H   H79       1.0  0.45650  0.77760  0.40600  1.0000
  C   C132      1.0  0.54940  0.68640  0.61475  1.0000
  H   H80       1.0  0.56745  0.66868  0.56359  1.0000
  H   H81       1.0  0.53557  0.71595  0.58461  1.0000
  H   H82       1.0  0.02284  0.66529  0.63820  1.0000
  N   N31       1.0  0.49889  0.64887  0.29670  1.0000
  H   H83       1.0  0.47394  0.63480  0.32561  1.0000
  C   C133      1.0  0.78879  0.52479  0.31878  1.0000
  C   C134      1.0  0.72289  0.53464  0.40883  1.0000
  C   C135      1.0  0.76815  0.54076  0.39600  1.0000
  H   H84       1.0  0.78662  0.55127  0.44854  1.0000
  H   H85       1.0  0.71104  0.54352  0.46916  1.0000
  C   C136      1.0  0.79355  0.50947  0.63698  1.0000
  H   H86       1.0  0.80761  0.49630  0.57602  1.0000
  H   H87       1.0  0.76836  0.03339  0.61911  1.0000
  N   N32       1.0  0.83279  0.51625  0.32124  1.0000
  H   H88       1.0  0.85070  0.53428  0.36040  1.0000
