data_image0
_chemical_formula_structural       C4H2NCNC2NH2NCHNC5H3NC5H3C5NH3C5NH3C5NH3CNC2NCNCNCNCNCNCNCNCNC3HC5NH3C5NH3NC5H3NC5H3NC5H3
_chemical_formula_sum              "C72 H36 N24"
_cell_length_a       33.8079
_cell_length_b       33.8102
_cell_length_c       14.7704
_cell_angle_alpha    90
_cell_angle_beta     90
_cell_angle_gamma    120.007

_space_group_name_H-M_alt    "P 1"
_space_group_IT_number       1

loop_
  _space_group_symop_operation_xyz
  'x, y, z'

loop_
  _atom_site_type_symbol
  _atom_site_label
  _atom_site_symmetry_multiplicity
  _atom_site_fract_x
  _atom_site_fract_y
  _atom_site_fract_z
  _atom_site_occupancy
  C   C1        1.0  0.19971  0.10178  0.34686  1.0000
  C   C2        1.0  0.17527  0.08908  0.26401  1.0000
  C   C3        1.0  0.12716  0.06503  0.26419  1.0000
  C   C4        1.0  0.10284  0.05334  0.34662  1.0000
  H   H1        1.0  0.19198  0.09713  0.20319  1.0000
  H   H2        1.0  0.11005  0.05615  0.20373  1.0000
  N   N1        1.0  0.03138  0.05235  0.34763  1.0000
  C   C5        1.0  0.05479  0.02934  0.34780  1.0000
  N   N2        1.0  0.03134  0.98292  0.34760  1.0000
  C   C6        1.0  0.24851  0.12622  0.35124  1.0000
  C   C7        1.0  0.12818  0.06649  0.42774  1.0000
  N   N3        1.0  0.17455  0.08966  0.42460  1.0000
  H   H3        1.0  0.11227  0.05889  0.48937  1.0000
  H   H4        1.0  0.25625  0.13283  0.49477  1.0000
  N   N4        1.0  0.27367  0.13727  0.27356  1.0000
  C   C8        1.0  0.32003  0.16030  0.27042  1.0000
  H   H5        1.0  0.33593  0.16709  0.20884  1.0000
  N   N5        1.0  0.87698  0.14024  0.27358  1.0000
  C   C9        1.0  0.85394  0.16355  0.27043  1.0000
  C   C10       1.0  0.91254  0.10185  0.34688  1.0000
  C   C11       1.0  0.92521  0.09009  0.26403  1.0000
  C   C12       1.0  0.94925  0.06602  0.26421  1.0000
  C   C13       1.0  0.96096  0.05341  0.34664  1.0000
  H   H6        1.0  0.91715  0.09873  0.20321  1.0000
  H   H7        1.0  0.95811  0.05777  0.20375  1.0000
  H   H8        1.0  0.84709  0.17260  0.20884  1.0000
  N   N6        1.0  0.87409  0.74064  0.27358  1.0000
  C   C14       1.0  0.85078  0.69428  0.27044  1.0000
  C   C15       1.0  0.91246  0.81460  0.34686  1.0000
  C   C16       1.0  0.92422  0.83903  0.26401  1.0000
  C   C17       1.0  0.94828  0.88714  0.26418  1.0000
  C   C18       1.0  0.96087  0.91146  0.34661  1.0000
  H   H9        1.0  0.91560  0.82232  0.20320  1.0000
  H   H10       1.0  0.95654  0.90425  0.20372  1.0000
  H   H11       1.0  0.84174  0.67838  0.20885  1.0000
  C   C19       1.0  0.48992  0.17746  0.34544  1.0000
  C   C20       1.0  0.50880  0.17339  0.26318  1.0000
  C   C21       1.0  0.54585  0.16535  0.26322  1.0000
  C   C22       1.0  0.56551  0.16285  0.34623  1.0000
  C   C23       1.0  0.67421  0.17310  0.27045  1.0000
  N   N7        1.0  0.63133  0.16680  0.27343  1.0000
  H   H12       1.0  0.69003  0.17846  0.20899  1.0000
  H   H13       1.0  0.49766  0.17913  0.20276  1.0000
  H   H14       1.0  0.56008  0.16467  0.20255  1.0000
  C   C24       1.0  0.83691  0.31638  0.34562  1.0000
  C   C25       1.0  0.84090  0.33932  0.26337  1.0000
  C   C26       1.0  0.84892  0.38439  0.26335  1.0000
  C   C27       1.0  0.85147  0.40659  0.34632  1.0000
  C   C28       1.0  0.84102  0.50490  0.27044  1.0000
  N   N8        1.0  0.84734  0.46832  0.27345  1.0000
  H   H15       1.0  0.83558  0.51530  0.20899  1.0000
  H   H16       1.0  0.83520  0.32245  0.20294  1.0000
  H   H17       1.0  0.84963  0.39929  0.20264  1.0000
  C   C29       1.0  0.69791  0.52441  0.34571  1.0000
  C   C30       1.0  0.67509  0.50541  0.26339  1.0000
  C   C31       1.0  0.62998  0.46840  0.26339  1.0000
  C   C32       1.0  0.60769  0.44886  0.34639  1.0000
  C   C33       1.0  0.50942  0.34003  0.27067  1.0000
  N   N9        1.0  0.54599  0.38293  0.27362  1.0000
  H   H18       1.0  0.49904  0.32415  0.20924  1.0000
  H   H19       1.0  0.69206  0.51638  0.20302  1.0000
  H   H20       1.0  0.61520  0.45399  0.20273  1.0000
  C   C34       1.0  0.98492  0.95951  0.34778  1.0000
  N   N10       1.0  0.96194  0.98295  0.34762  1.0000
  C   C35       1.0  0.98496  0.02937  0.34782  1.0000
  C   C36       1.0  0.46323  0.26848  0.35079  1.0000
  N   N11       1.0  0.41681  0.24521  0.35193  1.0000
  C   C37       1.0  0.39344  0.19866  0.35020  1.0000
  N   N12       1.0  0.41678  0.17547  0.34772  1.0000
  C   C38       1.0  0.46320  0.19862  0.34682  1.0000
  N   N13       1.0  0.48582  0.24485  0.34836  1.0000
  C   C39       1.0  0.74587  0.19866  0.35066  1.0000
  N   N14       1.0  0.76914  0.17552  0.35177  1.0000
  C   C40       1.0  0.81569  0.19871  0.35022  1.0000
  N   N15       1.0  0.83889  0.24524  0.34789  1.0000
  C   C41       1.0  0.81575  0.26851  0.34697  1.0000
  N   N16       1.0  0.76951  0.24489  0.34835  1.0000
  C   C42       1.0  0.81564  0.55110  0.35063  1.0000
  N   N17       1.0  0.83880  0.59752  0.35177  1.0000
  C   C43       1.0  0.81561  0.62088  0.35024  1.0000
  N   N18       1.0  0.76908  0.59755  0.34795  1.0000
  C   C44       1.0  0.74580  0.55113  0.34700  1.0000
  N   N19       1.0  0.76941  0.52851  0.34835  1.0000
  C   C45       1.0  0.34539  0.17463  0.35146  1.0000
  C   C46       1.0  0.32107  0.16413  0.43381  1.0000
  C   C47       1.0  0.27295  0.13999  0.43401  1.0000
  H   H21       1.0  0.33819  0.17386  0.49421  1.0000
  C   C48       1.0  0.83972  0.17469  0.35147  1.0000
  C   C49       1.0  0.85031  0.16096  0.43384  1.0000
  C   C50       1.0  0.87445  0.13699  0.43404  1.0000
  C   C51       1.0  0.88812  0.12623  0.35126  1.0000
  C   C52       1.0  0.94785  0.06564  0.42777  1.0000
  N   N20       1.0  0.92469  0.08884  0.42462  1.0000
  H   H22       1.0  0.95547  0.05736  0.48940  1.0000
  H   H23       1.0  0.84066  0.16843  0.49425  1.0000
  H   H24       1.0  0.88167  0.12751  0.49481  1.0000
  C   C53       1.0  0.83964  0.66893  0.35149  1.0000
  C   C54       1.0  0.85335  0.69325  0.43385  1.0000
  C   C55       1.0  0.87732  0.74137  0.43404  1.0000
  C   C56       1.0  0.88809  0.76580  0.35125  1.0000
  C   C57       1.0  0.94863  0.88612  0.42774  1.0000
  N   N21       1.0  0.92544  0.83976  0.42460  1.0000
  H   H25       1.0  0.95691  0.90203  0.48937  1.0000
  H   H26       1.0  0.84588  0.67614  0.49426  1.0000
  H   H27       1.0  0.88679  0.75807  0.49480  1.0000
  N   N22       1.0  0.54590  0.16683  0.42378  1.0000
  C   C58       1.0  0.50928  0.17307  0.42672  1.0000
  C   C59       1.0  0.60774  0.16283  0.35098  1.0000
  C   C60       1.0  0.62995  0.16536  0.43397  1.0000
  C   C61       1.0  0.67505  0.17345  0.43397  1.0000
  C   C62       1.0  0.69799  0.17751  0.35167  1.0000
  H   H28       1.0  0.61512  0.16484  0.49466  1.0000
  H   H29       1.0  0.69195  0.17926  0.49440  1.0000
  H   H30       1.0  0.49884  0.17850  0.48815  1.0000
  N   N23       1.0  0.84753  0.38303  0.42388  1.0000
  C   C63       1.0  0.84138  0.34020  0.42686  1.0000
  C   C64       1.0  0.85143  0.44881  0.35104  1.0000
  C   C65       1.0  0.84902  0.46856  0.43402  1.0000
  C   C66       1.0  0.84095  0.50558  0.43401  1.0000
  C   C67       1.0  0.83677  0.52435  0.35168  1.0000
  H   H31       1.0  0.84981  0.45440  0.49471  1.0000
  H   H32       1.0  0.83537  0.51685  0.49444  1.0000
  H   H33       1.0  0.83585  0.32434  0.48832  1.0000
  N   N24       1.0  0.63119  0.46862  0.42395  1.0000
  C   C68       1.0  0.67404  0.50530  0.42698  1.0000
  C   C69       1.0  0.56549  0.40659  0.35116  1.0000
  C   C70       1.0  0.54570  0.38449  0.43418  1.0000
  C   C71       1.0  0.50867  0.33939  0.43425  1.0000
  C   C72       1.0  0.48997  0.31636  0.35197  1.0000
  H   H34       1.0  0.55993  0.39940  0.49486  1.0000
  H   H35       1.0  0.49752  0.32252  0.49469  1.0000
  H   H36       1.0  0.68985  0.51572  0.48844  1.0000
