data_image0
_chemical_formula_structural       C2HNCHNC5H2CNC2NCNC2NC2HNCHNC5H2CNC2NCNC2NC2HC2HC2NCH2NC4HC4HC5H2C6NC2NC2HC2HC2NCH2NC4HC4HC5H2C6NC2NH2C2H3CH2C3H2NC2NC4H3CH2C3H2NC2NC4HNCHNC5H2CNC2NCNC2NC2HNCHNC5H2CNC2NCNC2NC2HC2HC2HC2HC2HC2HNCHNCHNCHNCHNCHNCHC4H2C4H2C4H2C4H2C4H2C4H2C2NC2NC2NC2NC2NC2NC2NC2NC2NC2NC2NC2NC2HC2HC2HC2HC2HC2HNCHNCHNCHNCHNCHNCHC4H2C4H2C4H2C4H2C4H2C4H2C2NC2NC2NC2NC2NC2NC2NC2NC2NC2NC2NC2N
_chemical_formula_sum              "C264 H96 N72"
_cell_length_a       46.431
_cell_length_b       46.431
_cell_length_c       14.774
_cell_angle_alpha    90
_cell_angle_beta     90
_cell_angle_gamma    120

_space_group_name_H-M_alt    "P 1"
_space_group_IT_number       1

loop_
  _space_group_symop_operation_xyz
  'x, y, z'

loop_
  _atom_site_type_symbol
  _atom_site_label
  _atom_site_symmetry_multiplicity
  _atom_site_fract_x
  _atom_site_fract_y
  _atom_site_fract_z
  _atom_site_occupancy
  C   C1        1.0  0.04928  0.30227  0.37788  1.0000
  C   C2        1.0  0.08313  0.31986  0.35080  1.0000
  H   H1        1.0  0.03862  0.31651  0.38828  1.0000
  N   N1        1.0  0.15352  0.26150  0.26837  1.0000
  C   C3        1.0  0.12360  0.25940  0.25875  1.0000
  H   H2        1.0  0.11957  0.26950  0.20197  1.0000
  N   N2        1.0  0.12381  0.36599  0.26897  1.0000
  C   C4        1.0  0.15162  0.39598  0.26051  1.0000
  C   C5        1.0  0.02970  0.26655  0.38060  1.0000
  C   C6        1.0  0.09838  0.30084  0.33159  1.0000
  C   C7        1.0  0.08260  0.26625  0.34619  1.0000
  C   C8        1.0  0.04878  0.24997  0.37333  1.0000
  H   H3        1.0  0.12335  0.31324  0.31706  1.0000
  H   H4        1.0  0.03772  0.22484  0.37910  1.0000
  C   C9        1.0  0.10230  0.25087  0.33459  1.0000
  N   N3        1.0  0.11225  0.24094  0.40964  1.0000
  C   C10       1.0  0.14071  0.23897  0.41543  1.0000
  C   C11       1.0  0.14823  0.23246  0.49469  1.0000
  N   N4        1.0  0.15502  0.22688  0.56473  1.0000
  C   C12       1.0  0.10367  0.35506  0.34300  1.0000
  N   N5        1.0  0.14382  0.40658  0.41122  1.0000
  C   C13       1.0  0.11334  0.37814  0.41588  1.0000
  C   C14       1.0  0.09928  0.37031  0.49507  1.0000
  N   N6        1.0  0.08690  0.36325  0.56506  1.0000
  C   C15       1.0  0.04928  0.80227  0.37788  1.0000
  C   C16       1.0  0.08314  0.81986  0.35080  1.0000
  H   H5        1.0  0.03862  0.81651  0.38828  1.0000
  N   N7        1.0  0.15352  0.76150  0.26837  1.0000
  C   C17       1.0  0.12360  0.75940  0.25875  1.0000
  H   H6        1.0  0.11957  0.76950  0.20197  1.0000
  N   N8        1.0  0.12382  0.86599  0.26897  1.0000
  C   C18       1.0  0.15162  0.89599  0.26051  1.0000
  C   C19       1.0  0.02970  0.76655  0.38060  1.0000
  C   C20       1.0  0.09838  0.80085  0.33159  1.0000
  C   C21       1.0  0.08260  0.76625  0.34619  1.0000
  C   C22       1.0  0.04878  0.74997  0.37333  1.0000
  H   H7        1.0  0.12335  0.81324  0.31706  1.0000
  H   H8        1.0  0.03772  0.72484  0.37910  1.0000
  C   C23       1.0  0.10229  0.75087  0.33459  1.0000
  N   N9        1.0  0.11225  0.74094  0.40964  1.0000
  C   C24       1.0  0.14071  0.73897  0.41543  1.0000
  C   C25       1.0  0.14823  0.73245  0.49469  1.0000
  N   N10       1.0  0.15502  0.72688  0.56473  1.0000
  C   C26       1.0  0.10367  0.85506  0.34300  1.0000
  N   N11       1.0  0.14382  0.90658  0.41122  1.0000
  C   C27       1.0  0.11334  0.87814  0.41588  1.0000
  C   C28       1.0  0.09928  0.87031  0.49507  1.0000
  N   N12       1.0  0.08690  0.86326  0.56506  1.0000
  C   C29       1.0  0.21681  0.25062  0.37800  1.0000
  C   C30       1.0  0.19922  0.26701  0.35210  1.0000
  H   H9        1.0  0.20256  0.22565  0.38721  1.0000
  C   C31       1.0  0.27073  0.07932  0.34954  1.0000
  C   C32       1.0  0.25450  0.04549  0.37679  1.0000
  H   H10       1.0  0.22959  0.03482  0.38726  1.0000
  C   C33       1.0  0.26857  0.47022  0.37884  1.0000
  C   C34       1.0  0.25218  0.43612  0.35425  1.0000
  N   N13       1.0  0.25792  0.39599  0.27087  1.0000
  C   C35       1.0  0.25992  0.36809  0.26154  1.0000
  H   H11       1.0  0.24993  0.35402  0.20462  1.0000
  H   H12       1.0  0.16600  0.40024  0.20416  1.0000
  N   N14       1.0  0.26546  0.11991  0.26717  1.0000
  C   C36       1.0  0.26330  0.14770  0.25794  1.0000
  C   C37       1.0  0.27043  0.24847  0.38070  1.0000
  C   C38       1.0  0.25384  0.21281  0.37326  1.0000
  C   C39       1.0  0.27013  0.19527  0.34627  1.0000
  H   H13       1.0  0.22869  0.19875  0.37857  1.0000
  C   C40       1.0  0.25253  0.26678  0.38104  1.0000
  C   C41       1.0  0.21819  0.30140  0.33455  1.0000
  C   C42       1.0  0.25280  0.32012  0.34887  1.0000
  C   C43       1.0  0.26912  0.30246  0.37453  1.0000
  H   H14       1.0  0.20577  0.31398  0.32048  1.0000
  C   C44       1.0  0.27068  0.02597  0.38023  1.0000
  C   C45       1.0  0.25239  0.48976  0.38111  1.0000
  C   C46       1.0  0.21778  0.42058  0.33693  1.0000
  C   C47       1.0  0.19907  0.43656  0.34965  1.0000
  C   C48       1.0  0.21671  0.47066  0.37410  1.0000
  H   H15       1.0  0.20519  0.39553  0.32334  1.0000
  H   H16       1.0  0.20269  0.48180  0.37848  1.0000
  C   C49       1.0  0.16404  0.25220  0.34306  1.0000
  C   C50       1.0  0.26710  0.41586  0.34547  1.0000
  C   C51       1.0  0.26826  0.35518  0.33748  1.0000
  C   C52       1.0  0.16407  0.41707  0.33685  1.0000
  C   C53       1.0  0.25589  0.09969  0.34114  1.0000
  C   C54       1.0  0.25466  0.16022  0.33421  1.0000
  N   N15       1.0  0.24442  0.13994  0.40844  1.0000
  C   C55       1.0  0.24225  0.10940  0.41333  1.0000
  C   C56       1.0  0.23561  0.09522  0.49238  1.0000
  N   N16       1.0  0.22989  0.08272  0.56224  1.0000
  C   C57       1.0  0.21681  0.75062  0.37800  1.0000
  C   C58       1.0  0.19922  0.76701  0.35210  1.0000
  H   H17       1.0  0.20256  0.72565  0.38721  1.0000
  C   C59       1.0  0.27073  0.57932  0.34954  1.0000
  C   C60       1.0  0.25450  0.54549  0.37679  1.0000
  H   H18       1.0  0.22959  0.53482  0.38726  1.0000
  C   C61       1.0  0.26857  0.97022  0.37884  1.0000
  C   C62       1.0  0.25217  0.93612  0.35425  1.0000
  N   N17       1.0  0.25792  0.89599  0.27087  1.0000
  C   C63       1.0  0.25992  0.86809  0.26154  1.0000
  H   H19       1.0  0.24993  0.85403  0.20462  1.0000
  H   H20       1.0  0.16600  0.90024  0.20416  1.0000
  N   N18       1.0  0.26546  0.61991  0.26717  1.0000
  C   C64       1.0  0.26330  0.64770  0.25794  1.0000
  C   C65       1.0  0.27043  0.74847  0.38070  1.0000
  C   C66       1.0  0.25384  0.71281  0.37326  1.0000
  C   C67       1.0  0.27013  0.69528  0.34627  1.0000
  H   H21       1.0  0.22869  0.69876  0.37857  1.0000
  C   C68       1.0  0.25253  0.76678  0.38104  1.0000
  C   C69       1.0  0.21819  0.80139  0.33455  1.0000
  C   C70       1.0  0.25280  0.82012  0.34887  1.0000
  C   C71       1.0  0.26912  0.80246  0.37453  1.0000
  H   H22       1.0  0.20577  0.81398  0.32048  1.0000
  C   C72       1.0  0.27068  0.52597  0.38023  1.0000
  C   C73       1.0  0.25239  0.98976  0.38111  1.0000
  C   C74       1.0  0.21778  0.92058  0.33693  1.0000
  C   C75       1.0  0.19907  0.93656  0.34965  1.0000
  C   C76       1.0  0.21672  0.97066  0.37410  1.0000
  H   H23       1.0  0.20519  0.89553  0.32334  1.0000
  H   H24       1.0  0.20269  0.98180  0.37848  1.0000
  C   C77       1.0  0.16404  0.75220  0.34306  1.0000
  C   C78       1.0  0.26710  0.91586  0.34547  1.0000
  C   C79       1.0  0.26826  0.85518  0.33748  1.0000
  C   C80       1.0  0.16407  0.91707  0.33685  1.0000
  C   C81       1.0  0.25589  0.59969  0.34114  1.0000
  C   C82       1.0  0.25467  0.66023  0.33421  1.0000
  N   N19       1.0  0.24442  0.63994  0.40844  1.0000
  C   C83       1.0  0.24225  0.60940  0.41333  1.0000
  C   C84       1.0  0.23561  0.59522  0.49238  1.0000
  N   N20       1.0  0.22989  0.58272  0.56224  1.0000
  H   H25       1.0  0.27384  0.16215  0.20194  1.0000
  H   H26       1.0  0.27384  0.66215  0.20194  1.0000
  C   C85       1.0  0.32378  0.24833  0.35140  1.0000
  C   C86       1.0  0.30615  0.26460  0.37813  1.0000
  H   H27       1.0  0.32039  0.28952  0.38837  1.0000
  H   H28       1.0  0.29355  0.48101  0.38815  1.0000
  H   H29       1.0  0.35757  0.11620  0.20234  1.0000
  C   C87       1.0  0.30477  0.21406  0.33233  1.0000
  H   H30       1.0  0.31719  0.20149  0.31801  1.0000
  H   H31       1.0  0.29426  0.31649  0.38019  1.0000
  C   C88       1.0  0.30635  0.04509  0.37326  1.0000
  C   C89       1.0  0.32388  0.07887  0.34570  1.0000
  C   C90       1.0  0.30502  0.09460  0.33073  1.0000
  H   H32       1.0  0.32045  0.03407  0.37943  1.0000
  H   H33       1.0  0.31757  0.11955  0.31605  1.0000
  N   N21       1.0  0.27780  0.37501  0.41267  1.0000
  C   C91       1.0  0.27983  0.40546  0.41836  1.0000
  C   C92       1.0  0.28591  0.41921  0.49797  1.0000
  N   N22       1.0  0.29109  0.43133  0.56830  1.0000
  C   C93       1.0  0.35900  0.26309  0.34346  1.0000
  C   C94       1.0  0.35898  0.09860  0.33455  1.0000
  C   C95       1.0  0.32378  0.74833  0.35140  1.0000
  C   C96       1.0  0.30615  0.76460  0.37813  1.0000
  H   H34       1.0  0.32039  0.78952  0.38837  1.0000
  H   H35       1.0  0.29355  0.98101  0.38815  1.0000
  H   H36       1.0  0.35757  0.61620  0.20234  1.0000
  C   C97       1.0  0.30477  0.71406  0.33233  1.0000
  H   H37       1.0  0.31719  0.70149  0.31801  1.0000
  H   H38       1.0  0.29426  0.81649  0.38019  1.0000
  C   C98       1.0  0.30635  0.54509  0.37326  1.0000
  C   C99       1.0  0.32388  0.57887  0.34570  1.0000
  C   C100      1.0  0.30502  0.59459  0.33073  1.0000
  H   H39       1.0  0.32045  0.53407  0.37943  1.0000
  H   H40       1.0  0.31757  0.61955  0.31605  1.0000
  N   N23       1.0  0.27780  0.87501  0.41267  1.0000
  C   C101      1.0  0.27983  0.90546  0.41836  1.0000
  C   C102      1.0  0.28591  0.91921  0.49797  1.0000
  N   N24       1.0  0.29109  0.93133  0.56830  1.0000
  C   C103      1.0  0.35900  0.76309  0.34346  1.0000
  C   C104      1.0  0.35898  0.59861  0.33455  1.0000
  C   C105      1.0  0.43990  0.19535  0.35253  1.0000
  C   C106      1.0  0.47392  0.21296  0.37803  1.0000
  H   H41       1.0  0.48466  0.19872  0.38703  1.0000
  N   N25       1.0  0.36978  0.25378  0.26930  1.0000
  C   C107      1.0  0.39979  0.25602  0.26027  1.0000
  H   H42       1.0  0.40380  0.24563  0.20411  1.0000
  N   N26       1.0  0.39966  0.14980  0.26878  1.0000
  C   C108      1.0  0.37180  0.11993  0.25872  1.0000
  C   C109      1.0  0.49348  0.24868  0.38096  1.0000
  C   C110      1.0  0.47441  0.26529  0.37424  1.0000
  C   C111      1.0  0.44039  0.24895  0.34898  1.0000
  C   C112      1.0  0.42446  0.21432  0.33519  1.0000
  H   H43       1.0  0.48556  0.29045  0.37929  1.0000
  H   H44       1.0  0.39943  0.20189  0.32146  1.0000
  C   C113      1.0  0.42087  0.26447  0.33662  1.0000
  N   N27       1.0  0.41054  0.27431  0.41115  1.0000
  C   C114      1.0  0.38216  0.27644  0.41613  1.0000
  C   C115      1.0  0.37443  0.28273  0.49538  1.0000
  N   N28       1.0  0.36746  0.28812  0.56541  1.0000
  C   C116      1.0  0.41963  0.16017  0.34325  1.0000
  N   N29       1.0  0.37892  0.10833  0.40943  1.0000
  C   C117      1.0  0.40942  0.13670  0.41526  1.0000
  C   C118      1.0  0.42355  0.14404  0.49440  1.0000
  N   N30       1.0  0.43600  0.15067  0.56433  1.0000
  C   C119      1.0  0.43990  0.69535  0.35253  1.0000
  C   C120      1.0  0.47391  0.71296  0.37803  1.0000
  H   H45       1.0  0.48466  0.69872  0.38703  1.0000
  N   N31       1.0  0.36978  0.75378  0.26930  1.0000
  C   C121      1.0  0.39979  0.75602  0.26027  1.0000
  H   H46       1.0  0.40380  0.74563  0.20411  1.0000
  N   N32       1.0  0.39966  0.64980  0.26878  1.0000
  C   C122      1.0  0.37180  0.61993  0.25872  1.0000
  C   C123      1.0  0.49348  0.74868  0.38096  1.0000
  C   C124      1.0  0.47441  0.76529  0.37424  1.0000
  C   C125      1.0  0.44039  0.74895  0.34898  1.0000
  C   C126      1.0  0.42446  0.71432  0.33519  1.0000
  H   H47       1.0  0.48556  0.79045  0.37929  1.0000
  H   H48       1.0  0.39943  0.70189  0.32146  1.0000
  C   C127      1.0  0.42087  0.76447  0.33662  1.0000
  N   N33       1.0  0.41054  0.77431  0.41115  1.0000
  C   C128      1.0  0.38216  0.77644  0.41613  1.0000
  C   C129      1.0  0.37443  0.78273  0.49538  1.0000
  N   N34       1.0  0.36746  0.78812  0.56541  1.0000
  C   C130      1.0  0.41963  0.66017  0.34325  1.0000
  N   N35       1.0  0.37893  0.60833  0.40943  1.0000
  C   C131      1.0  0.40942  0.63670  0.41526  1.0000
  C   C132      1.0  0.42355  0.64404  0.49440  1.0000
  N   N36       1.0  0.43600  0.65067  0.56433  1.0000
  C   C133      1.0  0.93990  0.19535  0.35253  1.0000
  C   C134      1.0  0.97392  0.21296  0.37803  1.0000
  H   H49       1.0  0.98466  0.19872  0.38703  1.0000
  C   C135      1.0  0.54928  0.30227  0.37788  1.0000
  C   C136      1.0  0.58313  0.31986  0.35080  1.0000
  H   H50       1.0  0.53862  0.31651  0.38828  1.0000
  C   C137      1.0  0.82378  0.24833  0.35140  1.0000
  C   C138      1.0  0.80615  0.26460  0.37813  1.0000
  H   H51       1.0  0.82039  0.28952  0.38837  1.0000
  C   C139      1.0  0.71681  0.25062  0.37800  1.0000
  C   C140      1.0  0.69922  0.26701  0.35210  1.0000
  H   H52       1.0  0.70256  0.22565  0.38721  1.0000
  C   C141      1.0  0.77073  0.07932  0.34954  1.0000
  C   C142      1.0  0.75450  0.04549  0.37679  1.0000
  H   H53       1.0  0.72959  0.03482  0.38726  1.0000
  C   C143      1.0  0.76857  0.47022  0.37884  1.0000
  C   C144      1.0  0.75218  0.43612  0.35425  1.0000
  H   H54       1.0  0.79355  0.48101  0.38815  1.0000
  N   N37       1.0  0.65352  0.26150  0.26837  1.0000
  C   C145      1.0  0.62360  0.25940  0.25875  1.0000
  H   H55       1.0  0.61957  0.26950  0.20197  1.0000
  N   N38       1.0  0.75792  0.39599  0.27087  1.0000
  C   C146      1.0  0.75992  0.36809  0.26154  1.0000
  H   H56       1.0  0.74993  0.35402  0.20462  1.0000
  N   N39       1.0  0.62381  0.36599  0.26897  1.0000
  C   C147      1.0  0.65162  0.39598  0.26051  1.0000
  H   H57       1.0  0.66600  0.40024  0.20416  1.0000
  N   N40       1.0  0.86978  0.25378  0.26930  1.0000
  C   C148      1.0  0.89979  0.25602  0.26027  1.0000
  H   H58       1.0  0.90380  0.24563  0.20411  1.0000
  N   N41       1.0  0.76546  0.11991  0.26717  1.0000
  C   C149      1.0  0.76329  0.14770  0.25794  1.0000
  H   H59       1.0  0.77384  0.16215  0.20194  1.0000
  N   N42       1.0  0.89966  0.14980  0.26878  1.0000
  C   C150      1.0  0.87180  0.11993  0.25872  1.0000
  H   H60       1.0  0.85757  0.11620  0.20234  1.0000
  C   C151      1.0  0.99348  0.24868  0.38096  1.0000
  C   C152      1.0  0.97441  0.26529  0.37424  1.0000
  C   C153      1.0  0.94039  0.24895  0.34898  1.0000
  C   C154      1.0  0.92446  0.21432  0.33519  1.0000
  H   H61       1.0  0.98555  0.29045  0.37929  1.0000
  H   H62       1.0  0.89943  0.20189  0.32146  1.0000
  C   C155      1.0  0.52970  0.26655  0.38060  1.0000
  C   C156      1.0  0.59838  0.30084  0.33159  1.0000
  C   C157      1.0  0.58260  0.26625  0.34619  1.0000
  C   C158      1.0  0.54878  0.24997  0.37333  1.0000
  H   H63       1.0  0.62335  0.31324  0.31706  1.0000
  H   H64       1.0  0.53772  0.22484  0.37910  1.0000
  C   C159      1.0  0.77043  0.24847  0.38070  1.0000
  C   C160      1.0  0.75384  0.21281  0.37326  1.0000
  C   C161      1.0  0.77013  0.19527  0.34627  1.0000
  C   C162      1.0  0.80477  0.21406  0.33233  1.0000
  H   H65       1.0  0.72869  0.19875  0.37857  1.0000
  H   H66       1.0  0.81719  0.20149  0.31801  1.0000
  C   C163      1.0  0.75253  0.26678  0.38104  1.0000
  C   C164      1.0  0.71819  0.30140  0.33455  1.0000
  C   C165      1.0  0.75280  0.32012  0.34887  1.0000
  C   C166      1.0  0.76912  0.30246  0.37453  1.0000
  H   H67       1.0  0.70577  0.31398  0.32048  1.0000
  H   H68       1.0  0.79426  0.31649  0.38019  1.0000
  C   C167      1.0  0.77068  0.02597  0.38023  1.0000
  C   C168      1.0  0.80635  0.04509  0.37326  1.0000
  C   C169      1.0  0.82388  0.07887  0.34570  1.0000
  C   C170      1.0  0.80502  0.09460  0.33073  1.0000
  H   H69       1.0  0.82044  0.03407  0.37943  1.0000
  H   H70       1.0  0.81757  0.11955  0.31605  1.0000
  C   C171      1.0  0.75239  0.48976  0.38111  1.0000
  C   C172      1.0  0.71777  0.42058  0.33693  1.0000
  C   C173      1.0  0.69907  0.43656  0.34965  1.0000
  C   C174      1.0  0.71672  0.47066  0.37410  1.0000
  H   H71       1.0  0.70520  0.39553  0.32334  1.0000
  H   H72       1.0  0.70269  0.48180  0.37848  1.0000
  C   C175      1.0  0.66404  0.25220  0.34306  1.0000
  C   C176      1.0  0.60230  0.25087  0.33459  1.0000
  N   N43       1.0  0.61225  0.24094  0.40964  1.0000
  C   C177      1.0  0.64071  0.23897  0.41543  1.0000
  C   C178      1.0  0.64823  0.23246  0.49469  1.0000
  N   N44       1.0  0.65502  0.22688  0.56473  1.0000
  C   C179      1.0  0.76709  0.41586  0.34547  1.0000
  C   C180      1.0  0.76826  0.35518  0.33748  1.0000
  N   N45       1.0  0.77780  0.37501  0.41267  1.0000
  C   C181      1.0  0.77983  0.40546  0.41836  1.0000
  C   C182      1.0  0.78591  0.41921  0.49797  1.0000
  N   N46       1.0  0.79110  0.43133  0.56830  1.0000
  C   C183      1.0  0.60367  0.35506  0.34300  1.0000
  C   C184      1.0  0.66407  0.41707  0.33685  1.0000
  N   N47       1.0  0.64382  0.40658  0.41122  1.0000
  C   C185      1.0  0.61334  0.37814  0.41588  1.0000
  C   C186      1.0  0.59928  0.37031  0.49507  1.0000
  N   N48       1.0  0.58690  0.36325  0.56506  1.0000
  C   C187      1.0  0.85900  0.26309  0.34346  1.0000
  C   C188      1.0  0.92087  0.26447  0.33662  1.0000
  N   N49       1.0  0.91055  0.27431  0.41115  1.0000
  C   C189      1.0  0.88216  0.27644  0.41613  1.0000
  C   C190      1.0  0.87443  0.28273  0.49538  1.0000
  N   N50       1.0  0.86746  0.28812  0.56541  1.0000
  C   C191      1.0  0.75589  0.09969  0.34114  1.0000
  C   C192      1.0  0.75466  0.16022  0.33421  1.0000
  N   N51       1.0  0.74442  0.13994  0.40844  1.0000
  C   C193      1.0  0.74225  0.10940  0.41333  1.0000
  C   C194      1.0  0.73560  0.09522  0.49238  1.0000
  N   N52       1.0  0.72989  0.08272  0.56224  1.0000
  C   C195      1.0  0.91963  0.16017  0.34325  1.0000
  C   C196      1.0  0.85897  0.09860  0.33455  1.0000
  N   N53       1.0  0.87892  0.10833  0.40943  1.0000
  C   C197      1.0  0.90942  0.13670  0.41526  1.0000
  C   C198      1.0  0.92354  0.14404  0.49440  1.0000
  N   N54       1.0  0.93600  0.15067  0.56433  1.0000
  C   C199      1.0  0.93990  0.69535  0.35253  1.0000
  C   C200      1.0  0.97392  0.71296  0.37803  1.0000
  H   H73       1.0  0.98466  0.69872  0.38703  1.0000
  C   C201      1.0  0.54928  0.80227  0.37788  1.0000
  C   C202      1.0  0.58314  0.81986  0.35080  1.0000
  H   H74       1.0  0.53862  0.81651  0.38828  1.0000
  C   C203      1.0  0.82378  0.74833  0.35140  1.0000
  C   C204      1.0  0.80615  0.76460  0.37813  1.0000
  H   H75       1.0  0.82039  0.78952  0.38837  1.0000
  C   C205      1.0  0.71681  0.75062  0.37800  1.0000
  C   C206      1.0  0.69922  0.76701  0.35210  1.0000
  H   H76       1.0  0.70256  0.72565  0.38721  1.0000
  C   C207      1.0  0.77073  0.57932  0.34954  1.0000
  C   C208      1.0  0.75450  0.54549  0.37679  1.0000
  H   H77       1.0  0.72959  0.53482  0.38726  1.0000
  C   C209      1.0  0.76857  0.97022  0.37884  1.0000
  C   C210      1.0  0.75217  0.93612  0.35425  1.0000
  H   H78       1.0  0.79355  0.98101  0.38815  1.0000
  N   N55       1.0  0.65352  0.76150  0.26837  1.0000
  C   C211      1.0  0.62360  0.75940  0.25875  1.0000
  H   H79       1.0  0.61957  0.76950  0.20197  1.0000
  N   N56       1.0  0.75792  0.89599  0.27087  1.0000
  C   C212      1.0  0.75992  0.86809  0.26154  1.0000
  H   H80       1.0  0.74994  0.85403  0.20462  1.0000
  N   N57       1.0  0.62382  0.86599  0.26897  1.0000
  C   C213      1.0  0.65162  0.89599  0.26051  1.0000
  H   H81       1.0  0.66600  0.90024  0.20416  1.0000
  N   N58       1.0  0.86978  0.75378  0.26930  1.0000
  C   C214      1.0  0.89979  0.75602  0.26027  1.0000
  H   H82       1.0  0.90380  0.74563  0.20411  1.0000
  N   N59       1.0  0.76546  0.61991  0.26717  1.0000
  C   C215      1.0  0.76329  0.64770  0.25794  1.0000
  H   H83       1.0  0.77384  0.66215  0.20194  1.0000
  N   N60       1.0  0.89966  0.64980  0.26878  1.0000
  C   C216      1.0  0.87180  0.61993  0.25872  1.0000
  H   H84       1.0  0.85758  0.61620  0.20234  1.0000
  C   C217      1.0  0.99348  0.74868  0.38096  1.0000
  C   C218      1.0  0.97441  0.76529  0.37424  1.0000
  C   C219      1.0  0.94039  0.74895  0.34898  1.0000
  C   C220      1.0  0.92446  0.71432  0.33519  1.0000
  H   H85       1.0  0.98555  0.79045  0.37929  1.0000
  H   H86       1.0  0.89943  0.70189  0.32146  1.0000
  C   C221      1.0  0.52970  0.76655  0.38060  1.0000
  C   C222      1.0  0.59838  0.80085  0.33159  1.0000
  C   C223      1.0  0.58260  0.76625  0.34619  1.0000
  C   C224      1.0  0.54878  0.74997  0.37333  1.0000
  H   H87       1.0  0.62335  0.81324  0.31706  1.0000
  H   H88       1.0  0.53772  0.72484  0.37910  1.0000
  C   C225      1.0  0.77043  0.74847  0.38070  1.0000
  C   C226      1.0  0.75384  0.71281  0.37326  1.0000
  C   C227      1.0  0.77013  0.69528  0.34627  1.0000
  C   C228      1.0  0.80477  0.71406  0.33233  1.0000
  H   H89       1.0  0.72869  0.69876  0.37857  1.0000
  H   H90       1.0  0.81719  0.70149  0.31801  1.0000
  C   C229      1.0  0.75253  0.76678  0.38104  1.0000
  C   C230      1.0  0.71819  0.80139  0.33455  1.0000
  C   C231      1.0  0.75280  0.82012  0.34887  1.0000
  C   C232      1.0  0.76912  0.80246  0.37453  1.0000
  H   H91       1.0  0.70577  0.81398  0.32048  1.0000
  H   H92       1.0  0.79426  0.81649  0.38019  1.0000
  C   C233      1.0  0.77068  0.52597  0.38023  1.0000
  C   C234      1.0  0.80635  0.54509  0.37326  1.0000
  C   C235      1.0  0.82388  0.57887  0.34570  1.0000
  C   C236      1.0  0.80502  0.59459  0.33073  1.0000
  H   H93       1.0  0.82045  0.53407  0.37943  1.0000
  H   H94       1.0  0.81758  0.61955  0.31605  1.0000
  C   C237      1.0  0.75239  0.98976  0.38111  1.0000
  C   C238      1.0  0.71778  0.92058  0.33693  1.0000
  C   C239      1.0  0.69907  0.93656  0.34965  1.0000
  C   C240      1.0  0.71671  0.97066  0.37410  1.0000
  H   H95       1.0  0.70520  0.89553  0.32334  1.0000
  H   H96       1.0  0.70269  0.98180  0.37848  1.0000
  C   C241      1.0  0.66404  0.75220  0.34306  1.0000
  C   C242      1.0  0.60229  0.75087  0.33459  1.0000
  N   N61       1.0  0.61225  0.74094  0.40964  1.0000
  C   C243      1.0  0.64071  0.73897  0.41543  1.0000
  C   C244      1.0  0.64823  0.73245  0.49469  1.0000
  N   N62       1.0  0.65502  0.72688  0.56473  1.0000
  C   C245      1.0  0.76710  0.91586  0.34547  1.0000
  C   C246      1.0  0.76826  0.85518  0.33748  1.0000
  N   N63       1.0  0.77780  0.87501  0.41267  1.0000
  C   C247      1.0  0.77983  0.90546  0.41836  1.0000
  C   C248      1.0  0.78591  0.91921  0.49797  1.0000
  N   N64       1.0  0.79109  0.93133  0.56830  1.0000
  C   C249      1.0  0.60367  0.85506  0.34300  1.0000
  C   C250      1.0  0.66407  0.91707  0.33685  1.0000
  N   N65       1.0  0.64382  0.90658  0.41122  1.0000
  C   C251      1.0  0.61334  0.87814  0.41588  1.0000
  C   C252      1.0  0.59928  0.87031  0.49507  1.0000
  N   N66       1.0  0.58690  0.86326  0.56506  1.0000
  C   C253      1.0  0.85900  0.76309  0.34346  1.0000
  C   C254      1.0  0.92087  0.76447  0.33662  1.0000
  N   N67       1.0  0.91054  0.77431  0.41115  1.0000
  C   C255      1.0  0.88216  0.77644  0.41613  1.0000
  C   C256      1.0  0.87443  0.78273  0.49538  1.0000
  N   N68       1.0  0.86746  0.78812  0.56541  1.0000
  C   C257      1.0  0.75589  0.59969  0.34114  1.0000
  C   C258      1.0  0.75467  0.66023  0.33421  1.0000
  N   N69       1.0  0.74442  0.63994  0.40844  1.0000
  C   C259      1.0  0.74225  0.60940  0.41333  1.0000
  C   C260      1.0  0.73561  0.59522  0.49238  1.0000
  N   N70       1.0  0.72989  0.58272  0.56224  1.0000
  C   C261      1.0  0.91963  0.66017  0.34325  1.0000
  C   C262      1.0  0.85898  0.59861  0.33455  1.0000
  N   N71       1.0  0.87893  0.60833  0.40943  1.0000
  C   C263      1.0  0.90942  0.63670  0.41526  1.0000
  C   C264      1.0  0.92354  0.64404  0.49440  1.0000
  N   N72       1.0  0.93600  0.65067  0.56433  1.0000
