data_image0
_chemical_formula_structural       C2HN3C6H3C3NH3C3NH2N2C2HC2NH2C4NH3C4NH3N8C6H3C6H3C6H3C6H3C6H3N5C4NH3C4NH3C4NH3C4NH3
_chemical_formula_sum              "C72 H45 N27"
_cell_length_a       30.2067
_cell_length_b       30.2067
_cell_length_c       14.6775
_cell_angle_alpha    90
_cell_angle_beta     90
_cell_angle_gamma    120

_space_group_name_H-M_alt    "P 1"
_space_group_IT_number       1

loop_
  _space_group_symop_operation_xyz
  'x, y, z'

loop_
  _atom_site_type_symbol
  _atom_site_label
  _atom_site_symmetry_multiplicity
  _atom_site_fract_x
  _atom_site_fract_y
  _atom_site_fract_z
  _atom_site_occupancy
  C   C1        1.0  0.07032  0.53784  0.38625  1.0000
  C   C2        1.0  0.04442  0.52997  0.30261  1.0000
  H   H1        1.0  0.06508  0.54383  0.24373  1.0000
  N   N1        1.0  0.04133  0.51792  0.46228  1.0000
  N   N2        1.0  0.26926  0.55917  0.27617  1.0000
  N   N3        1.0  0.26977  0.71545  0.27309  1.0000
  C   C3        1.0  0.20369  0.56262  0.35450  1.0000
  C   C4        1.0  0.22727  0.61587  0.33745  1.0000
  C   C5        1.0  0.20322  0.64533  0.35066  1.0000
  C   C6        1.0  0.15159  0.61891  0.37904  1.0000
  C   C7        1.0  0.12462  0.56484  0.38840  1.0000
  C   C8        1.0  0.15146  0.53757  0.37979  1.0000
  H   H2        1.0  0.13227  0.63864  0.38399  1.0000
  H   H3        1.0  0.13171  0.49849  0.38359  1.0000
  H   H4        1.0  0.26576  0.63527  0.32428  1.0000
  C   C9        1.0  0.29320  0.51338  0.41034  1.0000
  C   C10       1.0  0.24613  0.51380  0.41553  1.0000
  C   C11       1.0  0.23496  0.53980  0.34564  1.0000
  N   N4        1.0  0.21737  0.49500  0.49216  1.0000
  H   H5        1.0  0.22675  0.47885  0.53990  1.0000
  H   H6        1.0  0.18630  0.49624  0.50157  1.0000
  H   H7        1.0  0.30502  0.50118  0.46541  1.0000
  C   C12       1.0  0.23384  0.69914  0.33954  1.0000
  C   C13       1.0  0.24244  0.73473  0.40961  1.0000
  C   C14       1.0  0.28997  0.78174  0.41493  1.0000
  N   N5        1.0  0.29995  0.81051  0.49153  1.0000
  H   H8        1.0  0.27445  0.80111  0.53934  1.0000
  H   H9        1.0  0.21842  0.72289  0.46468  1.0000
  N   N6        1.0  0.31250  0.55996  0.27373  1.0000
  N   N7        1.0  0.31227  0.75867  0.27555  1.0000
  C   C15       1.0  0.32885  0.54053  0.34038  1.0000
  C   C16       1.0  0.32708  0.79302  0.34490  1.0000
  H   H10       1.0  0.33225  0.84162  0.50086  1.0000
  C   C17       1.0  0.99037  0.50255  0.29907  1.0000
  C   C18       1.0  0.96333  0.48395  0.38261  1.0000
  N   N8        1.0  0.96683  0.49478  0.21679  1.0000
  H   H11       1.0  0.98644  0.50760  0.16076  1.0000
  H   H12       1.0  0.92987  0.47531  0.21077  1.0000
  C   C19       1.0  0.48984  0.53770  0.38669  1.0000
  C   C20       1.0  0.49589  0.51801  0.30341  1.0000
  C   C21       1.0  0.52337  0.49145  0.29940  1.0000
  C   C22       1.0  0.54374  0.48459  0.38225  1.0000
  N   N9        1.0  0.52967  0.47442  0.21726  1.0000
  H   H13       1.0  0.51592  0.48044  0.16163  1.0000
  H   H14       1.0  0.54951  0.45735  0.21074  1.0000
  H   H15       1.0  0.48080  0.52370  0.24501  1.0000
  C   C23       1.0  0.48974  0.95734  0.38652  1.0000
  C   C24       1.0  0.50361  0.98321  0.30222  1.0000
  C   C25       1.0  0.53054  0.03727  0.29876  1.0000
  C   C26       1.0  0.54304  0.06432  0.38291  1.0000
  N   N10       1.0  0.54309  0.06084  0.21611  1.0000
  H   H16       1.0  0.53387  0.04124  0.15974  1.0000
  H   H17       1.0  0.56134  0.09782  0.21038  1.0000
  H   H18       1.0  0.49394  0.96253  0.24294  1.0000
  N   N11       1.0  0.46917  0.71558  0.27706  1.0000
  N   N12       1.0  0.46821  0.75796  0.27461  1.0000
  N   N13       1.0  0.76480  0.46330  0.27578  1.0000
  N   N14       1.0  0.72163  0.46266  0.27323  1.0000
  N   N15       1.0  0.56507  0.30682  0.27567  1.0000
  N   N16       1.0  0.56537  0.26411  0.27343  1.0000
  N   N17       1.0  0.72077  0.26330  0.27692  1.0000
  N   N18       1.0  0.76329  0.30649  0.27474  1.0000
  C   C27       1.0  0.46542  0.64660  0.35562  1.0000
  C   C28       1.0  0.41215  0.61705  0.33864  1.0000
  C   C29       1.0  0.38260  0.56355  0.35183  1.0000
  C   C30       1.0  0.40890  0.53821  0.38008  1.0000
  C   C31       1.0  0.46299  0.56514  0.38913  1.0000
  C   C32       1.0  0.49036  0.61928  0.38079  1.0000
  H   H19       1.0  0.38911  0.49914  0.38449  1.0000
  H   H20       1.0  0.52943  0.63853  0.38451  1.0000
  H   H21       1.0  0.39283  0.63622  0.32542  1.0000
  C   C33       1.0  0.38119  0.82407  0.35402  1.0000
  C   C34       1.0  0.41085  0.80041  0.33767  1.0000
  C   C35       1.0  0.46428  0.82438  0.35205  1.0000
  C   C36       1.0  0.48943  0.87596  0.38084  1.0000
  C   C37       1.0  0.46239  0.90306  0.38879  1.0000
  C   C38       1.0  0.40835  0.87632  0.37896  1.0000
  H   H22       1.0  0.52846  0.89527  0.38607  1.0000
  H   H23       1.0  0.38904  0.89611  0.38218  1.0000
  H   H24       1.0  0.39174  0.76192  0.32452  1.0000
  C   C39       1.0  0.82983  0.45935  0.35466  1.0000
  C   C40       1.0  0.80588  0.40596  0.33904  1.0000
  C   C41       1.0  0.82987  0.37645  0.35250  1.0000
  C   C42       1.0  0.88170  0.40282  0.37998  1.0000
  C   C43       1.0  0.90900  0.45700  0.38692  1.0000
  C   C44       1.0  0.88227  0.48439  0.37816  1.0000
  H   H25       1.0  0.90095  0.38301  0.38428  1.0000
  H   H26       1.0  0.90214  0.52351  0.38082  1.0000
  H   H27       1.0  0.76729  0.38668  0.32670  1.0000
  C   C45       1.0  0.56880  0.37601  0.35383  1.0000
  C   C46       1.0  0.62209  0.40561  0.33750  1.0000
  C   C47       1.0  0.65151  0.45913  0.35097  1.0000
  C   C48       1.0  0.62508  0.48444  0.37893  1.0000
  C   C49       1.0  0.57092  0.45742  0.38616  1.0000
  C   C50       1.0  0.54367  0.40328  0.37769  1.0000
  H   H28       1.0  0.64481  0.52351  0.38327  1.0000
  H   H29       1.0  0.50456  0.38392  0.38075  1.0000
  H   H30       1.0  0.64148  0.38644  0.32489  1.0000
  C   C51       1.0  0.65177  0.19791  0.35514  1.0000
  C   C52       1.0  0.62224  0.22173  0.33911  1.0000
  C   C53       1.0  0.56867  0.19758  0.35174  1.0000
  C   C54       1.0  0.54328  0.14576  0.37909  1.0000
  C   C55       1.0  0.57030  0.11865  0.38710  1.0000
  C   C56       1.0  0.62443  0.14546  0.37873  1.0000
  H   H31       1.0  0.50420  0.12639  0.38325  1.0000
  H   H32       1.0  0.64374  0.12567  0.38176  1.0000
  H   H33       1.0  0.64147  0.26032  0.32682  1.0000
  N   N19       1.0  0.99112  0.49277  0.46039  1.0000
  N   N20       1.0  0.53676  0.50525  0.45964  1.0000
  N   N21       1.0  0.51164  0.53034  0.46188  1.0000
  N   N22       1.0  0.52823  0.03657  0.46139  1.0000
  N   N23       1.0  0.50316  0.98635  0.46331  1.0000
  C   C57       1.0  0.48742  0.79368  0.34141  1.0000
  C   C58       1.0  0.51451  0.78527  0.41160  1.0000
  C   C59       1.0  0.51403  0.73776  0.41693  1.0000
  C   C60       1.0  0.48853  0.70072  0.34665  1.0000
  N   N24       1.0  0.53266  0.72772  0.49369  1.0000
  H   H34       1.0  0.54853  0.75314  0.54169  1.0000
  H   H35       1.0  0.53150  0.69543  0.50299  1.0000
  H   H36       1.0  0.52628  0.80918  0.46680  1.0000
  C   C61       1.0  0.70530  0.48212  0.33991  1.0000
  C   C62       1.0  0.74079  0.50899  0.41019  1.0000
  C   C63       1.0  0.78777  0.50841  0.41543  1.0000
  C   C64       1.0  0.79907  0.48266  0.34527  1.0000
  N   N25       1.0  0.81655  0.52703  0.49205  1.0000
  H   H37       1.0  0.80722  0.54314  0.53996  1.0000
  H   H38       1.0  0.84773  0.52592  0.50106  1.0000
  H   H39       1.0  0.72891  0.52109  0.46533  1.0000
  C   C65       1.0  0.54565  0.22829  0.34004  1.0000
  C   C66       1.0  0.51881  0.23723  0.41001  1.0000
  C   C67       1.0  0.51957  0.28490  0.41500  1.0000
  C   C68       1.0  0.54586  0.32192  0.34506  1.0000
  N   N26       1.0  0.50086  0.29513  0.49145  1.0000
  H   H40       1.0  0.48452  0.26966  0.53924  1.0000
  H   H41       1.0  0.50236  0.32758  0.50065  1.0000
  H   H42       1.0  0.50648  0.21328  0.46517  1.0000
  C   C69       1.0  0.79906  0.32265  0.34146  1.0000
  C   C70       1.0  0.79048  0.28695  0.41134  1.0000
  C   C71       1.0  0.74286  0.24001  0.41639  1.0000
  C   C72       1.0  0.70588  0.22894  0.34624  1.0000
  N   N27       1.0  0.73267  0.21105  0.49280  1.0000
  H   H43       1.0  0.75807  0.22031  0.54075  1.0000
  H   H44       1.0  0.70028  0.17999  0.50186  1.0000
  H   H45       1.0  0.81440  0.29885  0.46652  1.0000
