data_image0
_chemical_formula_structural       C2HC3N2HC2HC3N2HC2HC3N2HC2NC2HNCHC2NC2HNCHC2NC2HNCHC2NC2HNCHC2NC2HNCHC2NC2HNCHNC18H12NC18H12NC18H12NC18H12NC18H12NC18H12C2NC2HNCHC2NC2HNCHC2NC2HNCHC2HC3N2HC2HC3N2HC2HC3N2HC2HC3N2HC2HC3N2HC2HC3N2H
_chemical_formula_sum              "C198 H108 N42"
_cell_length_a       68.1773
_cell_length_b       68.1772
_cell_length_c       14.951
_cell_angle_alpha    90
_cell_angle_beta     90
_cell_angle_gamma    120

_space_group_name_H-M_alt    "P 1"
_space_group_IT_number       1

loop_
  _space_group_symop_operation_xyz
  'x, y, z'

loop_
  _atom_site_type_symbol
  _atom_site_label
  _atom_site_symmetry_multiplicity
  _atom_site_fract_x
  _atom_site_fract_y
  _atom_site_fract_z
  _atom_site_occupancy
  C   C1        1.0  0.02597  0.51343  0.25750  1.0000
  C   C2        1.0  0.04982  0.52481  0.25676  1.0000
  H   H1        1.0  0.05761  0.52771  0.19595  1.0000
  C   C3        1.0  0.94226  0.47183  0.33608  1.0000
  C   C4        1.0  0.95519  0.47934  0.25594  1.0000
  C   C5        1.0  0.97904  0.49083  0.25709  1.0000
  N   N1        1.0  0.99146  0.49715  0.18058  1.0000
  N   N2        1.0  0.01364  0.50769  0.18076  1.0000
  H   H2        1.0  0.94742  0.47678  0.19518  1.0000
  C   C6        1.0  0.49061  0.51334  0.25730  1.0000
  C   C7        1.0  0.47925  0.52582  0.25662  1.0000
  H   H3        1.0  0.47633  0.53070  0.19583  1.0000
  C   C8        1.0  0.53221  0.47121  0.33570  1.0000
  C   C9        1.0  0.52468  0.47662  0.25560  1.0000
  C   C10       1.0  0.51319  0.48898  0.25679  1.0000
  N   N3        1.0  0.50687  0.49510  0.18031  1.0000
  N   N4        1.0  0.49634  0.50674  0.18054  1.0000
  H   H4        1.0  0.52725  0.47143  0.19482  1.0000
  C   C11       1.0  0.49079  0.97806  0.25737  1.0000
  C   C12       1.0  0.47831  0.95422  0.25671  1.0000
  H   H5        1.0  0.47344  0.94642  0.19591  1.0000
  C   C13       1.0  0.53287  0.06179  0.33568  1.0000
  C   C14       1.0  0.52748  0.04885  0.25560  1.0000
  C   C15       1.0  0.51513  0.02500  0.25681  1.0000
  N   N5        1.0  0.50904  0.01256  0.18035  1.0000
  N   N6        1.0  0.49741  0.99038  0.18060  1.0000
  H   H6        1.0  0.53269  0.05660  0.19483  1.0000
  C   C16       1.0  0.33107  0.55445  0.35192  1.0000
  C   C17       1.0  0.32030  0.55310  0.26893  1.0000
  N   N7        1.0  0.29970  0.55159  0.26515  1.0000
  C   C18       1.0  0.28802  0.55124  0.33912  1.0000
  C   C19       1.0  0.26710  0.55071  0.33409  1.0000
  H   H7        1.0  0.32817  0.55431  0.20943  1.0000
  N   N8        1.0  0.25667  0.54944  0.25518  1.0000
  C   C20       1.0  0.23700  0.54986  0.24944  1.0000
  H   H8        1.0  0.23034  0.54873  0.18721  1.0000
  C   C21       1.0  0.44985  0.77754  0.35275  1.0000
  C   C22       1.0  0.45131  0.76819  0.26976  1.0000
  N   N9        1.0  0.45284  0.74911  0.26598  1.0000
  C   C23       1.0  0.45309  0.73772  0.33992  1.0000
  C   C24       1.0  0.45363  0.71734  0.33484  1.0000
  H   H9        1.0  0.45018  0.77489  0.21025  1.0000
  N   N10       1.0  0.45500  0.70824  0.25594  1.0000
  C   C25       1.0  0.45458  0.68815  0.25014  1.0000
  H   H10       1.0  0.45578  0.68266  0.18792  1.0000
  C   C26       1.0  0.22656  0.67311  0.35210  1.0000
  C   C27       1.0  0.23597  0.68389  0.26911  1.0000
  N   N11       1.0  0.25507  0.70448  0.26534  1.0000
  C   C28       1.0  0.26641  0.71615  0.33931  1.0000
  C   C29       1.0  0.28680  0.73706  0.33427  1.0000
  H   H11       1.0  0.22933  0.67600  0.20961  1.0000
  N   N12       1.0  0.29596  0.74748  0.25537  1.0000
  C   C30       1.0  0.31606  0.76715  0.24964  1.0000
  H   H12       1.0  0.32160  0.77381  0.18741  1.0000
  C   C31       1.0  0.67447  0.44969  0.34718  1.0000
  C   C32       1.0  0.68456  0.44967  0.26406  1.0000
  N   N13       1.0  0.70497  0.45075  0.26010  1.0000
  C   C33       1.0  0.71705  0.45192  0.33398  1.0000
  C   C34       1.0  0.73776  0.45202  0.32898  1.0000
  H   H13       1.0  0.67631  0.44776  0.20493  1.0000
  N   N14       1.0  0.74759  0.45205  0.25002  1.0000
  C   C35       1.0  0.76708  0.45127  0.24453  1.0000
  H   H14       1.0  0.77331  0.45154  0.18215  1.0000
  C   C36       1.0  0.55441  0.22560  0.34654  1.0000
  C   C37       1.0  0.55446  0.23572  0.26340  1.0000
  N   N15       1.0  0.55338  0.25505  0.25938  1.0000
  C   C38       1.0  0.55216  0.26594  0.33322  1.0000
  C   C39       1.0  0.55206  0.28655  0.32818  1.0000
  H   H15       1.0  0.55643  0.22940  0.20429  1.0000
  N   N16       1.0  0.55208  0.29637  0.24919  1.0000
  C   C40       1.0  0.55285  0.31663  0.24368  1.0000
  H   H16       1.0  0.55263  0.32261  0.18129  1.0000
  C   C41       1.0  0.77846  0.32958  0.34734  1.0000
  C   C42       1.0  0.76836  0.31950  0.26418  1.0000
  N   N17       1.0  0.74905  0.29909  0.26012  1.0000
  C   C43       1.0  0.73813  0.28699  0.33395  1.0000
  C   C44       1.0  0.71752  0.26628  0.32885  1.0000
  H   H17       1.0  0.77471  0.32777  0.20507  1.0000
  N   N18       1.0  0.70773  0.25647  0.24983  1.0000
  C   C45       1.0  0.68748  0.23698  0.24425  1.0000
  H   H18       1.0  0.68153  0.23077  0.18183  1.0000
  N   N19       1.0  0.16020  0.57944  0.33761  1.0000
  C   C46       1.0  0.17324  0.60333  0.35065  1.0000
  C   C47       1.0  0.13613  0.56763  0.33764  1.0000
  C   C48       1.0  0.17270  0.56803  0.32489  1.0000
  C   C49       1.0  0.18752  0.57367  0.25125  1.0000
  C   C50       1.0  0.20450  0.56766  0.25015  1.0000
  C   C51       1.0  0.20694  0.55529  0.32142  1.0000
  C   C52       1.0  0.19069  0.54808  0.39117  1.0000
  C   C53       1.0  0.17413  0.55462  0.39364  1.0000
  C   C54       1.0  0.17429  0.61852  0.28422  1.0000
  C   C55       1.0  0.19080  0.64164  0.28789  1.0000
  C   C56       1.0  0.20751  0.65039  0.35610  1.0000
  C   C57       1.0  0.20559  0.63512  0.42468  1.0000
  C   C58       1.0  0.18859  0.61216  0.42284  1.0000
  C   C59       1.0  0.12395  0.56792  0.26201  1.0000
  C   C60       1.0  0.10011  0.55661  0.26264  1.0000
  C   C61       1.0  0.08723  0.54369  0.33738  1.0000
  C   C62       1.0  0.09987  0.54325  0.41224  1.0000
  C   C63       1.0  0.12373  0.55526  0.41310  1.0000
  H   H19       1.0  0.19104  0.65180  0.23712  1.0000
  H   H20       1.0  0.16396  0.61268  0.22960  1.0000
  H   H21       1.0  0.18878  0.60146  0.47040  1.0000
  H   H22       1.0  0.21752  0.64007  0.47401  1.0000
  H   H23       1.0  0.18753  0.58420  0.20244  1.0000
  H   H24       1.0  0.21619  0.57411  0.19979  1.0000
  H   H25       1.0  0.13238  0.57647  0.20569  1.0000
  H   H26       1.0  0.09237  0.55831  0.20709  1.0000
  H   H27       1.0  0.09192  0.53389  0.46772  1.0000
  H   H28       1.0  0.13200  0.55485  0.46942  1.0000
  H   H29       1.0  0.16425  0.55091  0.44940  1.0000
  H   H30       1.0  0.19146  0.53896  0.44398  1.0000
  N   N20       1.0  0.42473  0.58167  0.33762  1.0000
  C   C64       1.0  0.40083  0.57085  0.35057  1.0000
  C   C65       1.0  0.43650  0.56937  0.33765  1.0000
  C   C66       1.0  0.43618  0.60558  0.32517  1.0000
  C   C67       1.0  0.43058  0.61481  0.25159  1.0000
  C   C68       1.0  0.43668  0.63782  0.25044  1.0000
  C   C69       1.0  0.44900  0.65259  0.32190  1.0000
  C   C70       1.0  0.45611  0.64348  0.39176  1.0000
  C   C71       1.0  0.44957  0.62037  0.39405  1.0000
  C   C72       1.0  0.38565  0.55675  0.28406  1.0000
  C   C73       1.0  0.36254  0.55017  0.28765  1.0000
  C   C74       1.0  0.35378  0.55809  0.35597  1.0000
  C   C75       1.0  0.36905  0.57142  0.42458  1.0000
  C   C76       1.0  0.39201  0.57737  0.42278  1.0000
  C   C77       1.0  0.43619  0.55690  0.26199  1.0000
  C   C78       1.0  0.44749  0.54435  0.26259  1.0000
  C   C79       1.0  0.46039  0.54436  0.33732  1.0000
  C   C80       1.0  0.46084  0.55744  0.41221  1.0000
  C   C81       1.0  0.44886  0.56930  0.41310  1.0000
  H   H31       1.0  0.35237  0.54024  0.23690  1.0000
  H   H32       1.0  0.39148  0.55224  0.22944  1.0000
  H   H33       1.0  0.40270  0.58823  0.47040  1.0000
  H   H34       1.0  0.36410  0.57840  0.47395  1.0000
  H   H35       1.0  0.42016  0.60434  0.20244  1.0000
  H   H36       1.0  0.43031  0.64311  0.19995  1.0000
  H   H37       1.0  0.42766  0.55680  0.20567  1.0000
  H   H38       1.0  0.44578  0.53492  0.20701  1.0000
  H   H39       1.0  0.47020  0.55883  0.46768  1.0000
  H   H40       1.0  0.44928  0.57799  0.46945  1.0000
  H   H41       1.0  0.45318  0.61416  0.44994  1.0000
  H   H42       1.0  0.46519  0.65333  0.44474  1.0000
  N   N21       1.0  0.42246  0.84384  0.33786  1.0000
  C   C82       1.0  0.43330  0.83079  0.35101  1.0000
  C   C83       1.0  0.43474  0.86792  0.33784  1.0000
  C   C84       1.0  0.39855  0.83136  0.32519  1.0000
  C   C85       1.0  0.38939  0.81652  0.25164  1.0000
  C   C86       1.0  0.36639  0.79958  0.25045  1.0000
  C   C87       1.0  0.35157  0.79718  0.32161  1.0000
  C   C88       1.0  0.36062  0.81344  0.39134  1.0000
  C   C89       1.0  0.38373  0.83000  0.39383  1.0000
  C   C90       1.0  0.44752  0.82981  0.28480  1.0000
  C   C91       1.0  0.45414  0.81331  0.28857  1.0000
  C   C92       1.0  0.44616  0.79658  0.35673  1.0000
  C   C93       1.0  0.43272  0.79845  0.42508  1.0000
  C   C94       1.0  0.42673  0.81543  0.42315  1.0000
  C   C95       1.0  0.44719  0.88008  0.26214  1.0000
  C   C96       1.0  0.45974  0.90392  0.26271  1.0000
  C   C97       1.0  0.45974  0.91682  0.33744  1.0000
  C   C98       1.0  0.44667  0.90419  0.41237  1.0000
  C   C99       1.0  0.43481  0.88034  0.41329  1.0000
  H   H43       1.0  0.46415  0.81312  0.23804  1.0000
  H   H44       1.0  0.45208  0.84018  0.23027  1.0000
  H   H45       1.0  0.41580  0.81521  0.47055  1.0000
  H   H46       1.0  0.42570  0.78650  0.47431  1.0000
  H   H47       1.0  0.39989  0.81656  0.20266  1.0000
  H   H48       1.0  0.36111  0.78793  0.19991  1.0000
  H   H49       1.0  0.44729  0.87164  0.20582  1.0000
  H   H50       1.0  0.46916  0.91163  0.20712  1.0000
  H   H51       1.0  0.44528  0.91216  0.46784  1.0000
  H   H52       1.0  0.42614  0.87208  0.46966  1.0000
  H   H53       1.0  0.38990  0.83985  0.44966  1.0000
  H   H54       1.0  0.35073  0.81269  0.44415  1.0000
  N   N22       1.0  0.84478  0.42301  0.33493  1.0000
  C   C100      1.0  0.83206  0.39911  0.34787  1.0000
  C   C101      1.0  0.86885  0.43509  0.33522  1.0000
  C   C102      1.0  0.83193  0.43405  0.32201  1.0000
  C   C103      1.0  0.81686  0.42792  0.24901  1.0000
  C   C104      1.0  0.79978  0.43378  0.24759  1.0000
  C   C105      1.0  0.79749  0.44655  0.31765  1.0000
  C   C106      1.0  0.81398  0.45420  0.38665  1.0000
  C   C107      1.0  0.83062  0.44776  0.38968  1.0000
  C   C108      1.0  0.83073  0.38414  0.27992  1.0000
  C   C109      1.0  0.81412  0.36105  0.28282  1.0000
  C   C110      1.0  0.79771  0.35214  0.35207  1.0000
  C   C111      1.0  0.80002  0.36716  0.42236  1.0000
  C   C112      1.0  0.81706  0.39011  0.42104  1.0000
  C   C113      1.0  0.88119  0.43507  0.25966  1.0000
  C   C114      1.0  0.90504  0.44669  0.26061  1.0000
  C   C115      1.0  0.91772  0.45956  0.33576  1.0000
  C   C116      1.0  0.90493  0.45968  0.41064  1.0000
  C   C117      1.0  0.88108  0.44741  0.41106  1.0000
  H   H55       1.0  0.81351  0.35105  0.23068  1.0000
  H   H56       1.0  0.84076  0.39019  0.22450  1.0000
  H   H57       1.0  0.81705  0.40071  0.46945  1.0000
  H   H58       1.0  0.78827  0.36206  0.47248  1.0000
  H   H59       1.0  0.81688  0.41731  0.20062  1.0000
  H   H60       1.0  0.78802  0.42708  0.19754  1.0000
  H   H61       1.0  0.87288  0.42650  0.20321  1.0000
  H   H62       1.0  0.91295  0.44523  0.20510  1.0000
  H   H63       1.0  0.91278  0.46897  0.46639  1.0000
  H   H64       1.0  0.87268  0.44759  0.46739  1.0000
  H   H65       1.0  0.84069  0.45186  0.44499  1.0000
  H   H66       1.0  0.81341  0.46367  0.43857  1.0000
  N   N23       1.0  0.58105  0.42258  0.33434  1.0000
  C   C118      1.0  0.60494  0.43376  0.34742  1.0000
  C   C119      1.0  0.56896  0.43456  0.33467  1.0000
  C   C120      1.0  0.57003  0.39869  0.32130  1.0000
  C   C121      1.0  0.57620  0.38977  0.24837  1.0000
  C   C122      1.0  0.57034  0.36683  0.24689  1.0000
  C   C123      1.0  0.55751  0.35174  0.31680  1.0000
  C   C124      1.0  0.54985  0.36057  0.38577  1.0000
  C   C125      1.0  0.55627  0.38364  0.38884  1.0000
  C   C126      1.0  0.61994  0.44744  0.27959  1.0000
  C   C127      1.0  0.64302  0.45390  0.28254  1.0000
  C   C128      1.0  0.65191  0.44639  0.35185  1.0000
  C   C129      1.0  0.63688  0.43367  0.42206  1.0000
  C   C130      1.0  0.61393  0.42775  0.42063  1.0000
  C   C131      1.0  0.56899  0.44694  0.25917  1.0000
  C   C132      1.0  0.55737  0.45917  0.26018  1.0000
  C   C133      1.0  0.54448  0.45895  0.33532  1.0000
  C   C134      1.0  0.54437  0.44603  0.41017  1.0000
  C   C135      1.0  0.55664  0.43445  0.41054  1.0000
  H   H67       1.0  0.65304  0.46329  0.23043  1.0000
  H   H68       1.0  0.61390  0.45139  0.22404  1.0000
  H   H69       1.0  0.60330  0.41712  0.46896  1.0000
  H   H70       1.0  0.64196  0.42701  0.47219  1.0000
  H   H71       1.0  0.58683  0.40041  0.20008  1.0000
  H   H72       1.0  0.57706  0.36178  0.19690  1.0000
  H   H73       1.0  0.57757  0.44721  0.20272  1.0000
  H   H74       1.0  0.55882  0.46854  0.20468  1.0000
  H   H75       1.0  0.53506  0.44456  0.46591  1.0000
  H   H76       1.0  0.55646  0.42587  0.46683  1.0000
  H   H77       1.0  0.55214  0.38960  0.44412  1.0000
  H   H78       1.0  0.54034  0.35051  0.43758  1.0000
  N   N24       1.0  0.58149  0.15926  0.33423  1.0000
  C   C136      1.0  0.57031  0.17198  0.34714  1.0000
  C   C137      1.0  0.56950  0.13520  0.33460  1.0000
  C   C138      1.0  0.60538  0.17212  0.32140  1.0000
  C   C139      1.0  0.61434  0.18719  0.24841  1.0000
  C   C140      1.0  0.63728  0.20428  0.24713  1.0000
  C   C141      1.0  0.65233  0.20655  0.31721  1.0000
  C   C142      1.0  0.64346  0.19007  0.38622  1.0000
  C   C143      1.0  0.62039  0.17341  0.38911  1.0000
  C   C144      1.0  0.55668  0.17331  0.27915  1.0000
  C   C145      1.0  0.55022  0.18994  0.28198  1.0000
  C   C146      1.0  0.55769  0.20633  0.35131  1.0000
  C   C147      1.0  0.57037  0.20400  0.42168  1.0000
  C   C148      1.0  0.57628  0.18697  0.42035  1.0000
  C   C149      1.0  0.55715  0.12284  0.25905  1.0000
  C   C150      1.0  0.54492  0.09899  0.26008  1.0000
  C   C151      1.0  0.54512  0.08633  0.33529  1.0000
  C   C152      1.0  0.55801  0.09913  0.41017  1.0000
  C   C153      1.0  0.56958  0.12298  0.41053  1.0000
  H   H79       1.0  0.54087  0.19059  0.22974  1.0000
  H   H80       1.0  0.55275  0.16334  0.22360  1.0000
  H   H81       1.0  0.58688  0.18696  0.46880  1.0000
  H   H82       1.0  0.57701  0.21575  0.47180  1.0000
  H   H83       1.0  0.60371  0.18719  0.20010  1.0000
  H   H84       1.0  0.64236  0.21605  0.19711  1.0000
  H   H85       1.0  0.55689  0.13114  0.20256  1.0000
  H   H86       1.0  0.53558  0.09106  0.20454  1.0000
  H   H87       1.0  0.55945  0.09130  0.46598  1.0000
  H   H88       1.0  0.57813  0.13140  0.46686  1.0000
  H   H89       1.0  0.61439  0.16333  0.44441  1.0000
  H   H90       1.0  0.65350  0.19061  0.43810  1.0000
  C   C154      1.0  0.06268  0.53165  0.33722  1.0000
  C   C155      1.0  0.04979  0.52596  0.41754  1.0000
  N   N25       1.0  0.02679  0.51441  0.41678  1.0000
  C   C156      1.0  0.01441  0.50782  0.34038  1.0000
  C   C157      1.0  0.99050  0.49585  0.34015  1.0000
  H   H91       1.0  0.05739  0.53074  0.47863  1.0000
  N   N26       1.0  0.97803  0.48867  0.41624  1.0000
  C   C158      1.0  0.95503  0.47702  0.41655  1.0000
  H   H92       1.0  0.94733  0.47175  0.47728  1.0000
  C   C159      1.0  0.47242  0.53184  0.33710  1.0000
  C   C160      1.0  0.47811  0.52463  0.41740  1.0000
  N   N27       1.0  0.48966  0.51317  0.41659  1.0000
  C   C161      1.0  0.49622  0.50737  0.34016  1.0000
  C   C162      1.0  0.50818  0.49542  0.33988  1.0000
  H   H93       1.0  0.47334  0.52745  0.47850  1.0000
  N   N28       1.0  0.51538  0.49014  0.41594  1.0000
  C   C163      1.0  0.52703  0.47879  0.41620  1.0000
  H   H94       1.0  0.53231  0.47636  0.47691  1.0000
  C   C164      1.0  0.47227  0.94137  0.33721  1.0000
  C   C165      1.0  0.47945  0.95428  0.41749  1.0000
  N   N29       1.0  0.49090  0.97728  0.41666  1.0000
  C   C166      1.0  0.49672  0.98964  0.34021  1.0000
  C   C167      1.0  0.50867  0.01356  0.33990  1.0000
  H   H95       1.0  0.47661  0.94669  0.47862  1.0000
  N   N30       1.0  0.51392  0.02603  0.41595  1.0000
  C   C168      1.0  0.52527  0.04904  0.41619  1.0000
  H   H96       1.0  0.52767  0.05675  0.47688  1.0000
  C   C169      1.0  0.29767  0.55254  0.42430  1.0000
  C   C170      1.0  0.31884  0.55369  0.42999  1.0000
  H   H97       1.0  0.32542  0.55440  0.49215  1.0000
  C   C171      1.0  0.22632  0.55223  0.32686  1.0000
  C   C172      1.0  0.23681  0.55313  0.41007  1.0000
  C   C173      1.0  0.25695  0.55221  0.41441  1.0000
  N   N31       1.0  0.26736  0.55344  0.49344  1.0000
  N   N32       1.0  0.28656  0.55348  0.49815  1.0000
  H   H98       1.0  0.23052  0.55562  0.46842  1.0000
  C   C174      1.0  0.45167  0.74601  0.42510  1.0000
  C   C175      1.0  0.45051  0.76602  0.43080  1.0000
  H   H99       1.0  0.44968  0.77182  0.49295  1.0000
  C   C176      1.0  0.45208  0.67503  0.32748  1.0000
  C   C177      1.0  0.45108  0.68455  0.41070  1.0000
  C   C178      1.0  0.45201  0.70561  0.41512  1.0000
  N   N33       1.0  0.45066  0.71472  0.49413  1.0000
  N   N34       1.0  0.45061  0.73389  0.49889  1.0000
  H   H100      1.0  0.44849  0.67573  0.46896  1.0000
  C   C179      1.0  0.25804  0.70650  0.42449  1.0000
  C   C180      1.0  0.23803  0.68534  0.43017  1.0000
  H   H101      1.0  0.23216  0.67875  0.49232  1.0000
  C   C181      1.0  0.32911  0.77783  0.32706  1.0000
  C   C182      1.0  0.31953  0.76734  0.41026  1.0000
  C   C183      1.0  0.29845  0.74721  0.41461  1.0000
  N   N35       1.0  0.28927  0.73681  0.49363  1.0000
  N   N36       1.0  0.27010  0.71761  0.49834  1.0000
  H   H102      1.0  0.32829  0.77363  0.46861  1.0000
  C   C184      1.0  0.70807  0.45201  0.41926  1.0000
  C   C185      1.0  0.68711  0.45131  0.42507  1.0000
  H   H103      1.0  0.68096  0.45154  0.48721  1.0000
  C   C186      1.0  0.77820  0.44980  0.32238  1.0000
  C   C187      1.0  0.76828  0.45014  0.40556  1.0000
  C   C188      1.0  0.74836  0.45147  0.40958  1.0000
  N   N37       1.0  0.73858  0.45155  0.48868  1.0000
  N   N38       1.0  0.71958  0.45193  0.49328  1.0000
  H   H104      1.0  0.77488  0.44839  0.46445  1.0000
  C   C189      1.0  0.55201  0.25684  0.41852  1.0000
  C   C190      1.0  0.55272  0.23660  0.42439  1.0000
  H   H105      1.0  0.55245  0.23020  0.48654  1.0000
  C   C191      1.0  0.55427  0.32920  0.32153  1.0000
  C   C192      1.0  0.55385  0.31891  0.40472  1.0000
  C   C193      1.0  0.55255  0.29767  0.40876  1.0000
  N   N39       1.0  0.55241  0.28779  0.48788  1.0000
  N   N40       1.0  0.55205  0.26843  0.49252  1.0000
  H   H106      1.0  0.55559  0.32725  0.46363  1.0000
  C   C194      1.0  0.74718  0.29596  0.41927  1.0000
  C   C195      1.0  0.76743  0.31692  0.42518  1.0000
  H   H107      1.0  0.77378  0.32306  0.48735  1.0000
  C   C196      1.0  0.67487  0.22584  0.32204  1.0000
  C   C197      1.0  0.68511  0.23573  0.40527  1.0000
  C   C198      1.0  0.70635  0.25566  0.40939  1.0000
  N   N41       1.0  0.71619  0.26543  0.48854  1.0000
  N   N42       1.0  0.73555  0.28443  0.49323  1.0000
  H   H108      1.0  0.67674  0.22914  0.46413  1.0000
