data_image0
_chemical_formula_structural       C4HNO2C4HNO2C4HNO2C2H2C2H2C2H2C2H2C2H2C2H2NC18H12NC18H12NC18H12NC18H12NC18H12NC18H12C2H2C2H2C2H2C4HNO2C4HNO2C4HNO2C4HNO2C4HNO2C4HNO2
_chemical_formula_sum              "C162 H99 N15 O18"
_cell_length_a       52.5643
_cell_length_b       52.5644
_cell_length_c       14.8717
_cell_angle_alpha    90
_cell_angle_beta     90
_cell_angle_gamma    120

_space_group_name_H-M_alt    "P 1"
_space_group_IT_number       1

loop_
  _space_group_symop_operation_xyz
  'x, y, z'

loop_
  _atom_site_type_symbol
  _atom_site_label
  _atom_site_symmetry_multiplicity
  _atom_site_fract_x
  _atom_site_fract_y
  _atom_site_fract_z
  _atom_site_occupancy
  C   C1        1.0  0.97443  0.48990  0.33410  1.0000
  C   C2        1.0  0.99020  0.48485  0.26600  1.0000
  C   C3        1.0  0.02140  0.50004  0.26325  1.0000
  C   C4        1.0  0.03793  0.52146  0.32999  1.0000
  H   H1        1.0  0.97888  0.46912  0.21838  1.0000
  N   N1        1.0  0.03611  0.49309  0.19619  1.0000
  O   O1        1.0  0.02999  0.46676  0.20107  1.0000
  O   O2        1.0  0.02991  0.49780  0.11856  1.0000
  C   C5        1.0  0.52082  0.48665  0.33406  1.0000
  C   C6        1.0  0.52586  0.50746  0.26592  1.0000
  C   C7        1.0  0.51067  0.52347  0.26317  1.0000
  C   C8        1.0  0.48927  0.51860  0.32999  1.0000
  H   H2        1.0  0.54156  0.51183  0.21823  1.0000
  N   N2        1.0  0.51759  0.54509  0.19604  1.0000
  O   O3        1.0  0.54392  0.56530  0.20078  1.0000
  O   O4        1.0  0.51284  0.53415  0.11845  1.0000
  C   C9        1.0  0.52410  0.03629  0.33394  1.0000
  C   C10       1.0  0.50331  0.02053  0.26576  1.0000
  C   C11       1.0  0.48730  0.98933  0.26296  1.0000
  C   C12       1.0  0.49216  0.97279  0.32974  1.0000
  H   H3        1.0  0.49893  0.03186  0.21811  1.0000
  N   N3        1.0  0.46568  0.97463  0.19580  1.0000
  O   O5        1.0  0.44547  0.98076  0.20054  1.0000
  O   O6        1.0  0.47663  0.98085  0.11823  1.0000
  C   C13       1.0  0.26541  0.54815  0.26325  1.0000
  C   C14       1.0  0.29213  0.54818  0.26938  1.0000
  H   H4        1.0  0.25655  0.54634  0.20068  1.0000
  H   H5        1.0  0.30174  0.54746  0.21045  1.0000
  C   C15       1.0  0.46281  0.71951  0.26304  1.0000
  C   C16       1.0  0.46278  0.74620  0.26912  1.0000
  H   H6        1.0  0.46458  0.71242  0.20048  1.0000
  H   H7        1.0  0.46344  0.75648  0.21014  1.0000
  C   C17       1.0  0.29132  0.74536  0.26253  1.0000
  C   C18       1.0  0.26462  0.71864  0.26869  1.0000
  H   H8        1.0  0.29842  0.75416  0.19992  1.0000
  H   H9        1.0  0.25434  0.70898  0.20975  1.0000
  C   C19       1.0  0.74653  0.46169  0.26941  1.0000
  C   C20       1.0  0.71957  0.46117  0.27554  1.0000
  H   H10       1.0  0.75549  0.46374  0.20687  1.0000
  H   H11       1.0  0.70990  0.46178  0.21661  1.0000
  C   C21       1.0  0.54918  0.28702  0.26940  1.0000
  C   C22       1.0  0.54970  0.26057  0.27556  1.0000
  H   H12       1.0  0.54712  0.29392  0.20686  1.0000
  H   H13       1.0  0.54907  0.25028  0.21664  1.0000
  C   C23       1.0  0.72375  0.26421  0.26949  1.0000
  C   C24       1.0  0.75019  0.29118  0.27562  1.0000
  H   H14       1.0  0.71684  0.25525  0.20696  1.0000
  H   H15       1.0  0.76047  0.30085  0.21669  1.0000
  N   N4        1.0  0.16398  0.58454  0.33619  1.0000
  C   C25       1.0  0.18061  0.61539  0.35302  1.0000
  C   C26       1.0  0.13273  0.56911  0.33484  1.0000
  C   C27       1.0  0.18062  0.57011  0.32316  1.0000
  C   C28       1.0  0.20272  0.58041  0.25646  1.0000
  C   C29       1.0  0.22544  0.57364  0.26069  1.0000
  C   C30       1.0  0.22621  0.55520  0.32903  1.0000
  C   C31       1.0  0.20202  0.54224  0.38903  1.0000
  C   C32       1.0  0.18004  0.55013  0.38769  1.0000
  C   C33       1.0  0.18233  0.63565  0.28770  1.0000
  C   C34       1.0  0.20478  0.66532  0.29113  1.0000
  C   C35       1.0  0.22716  0.67578  0.35770  1.0000
  C   C36       1.0  0.22398  0.65544  0.42590  1.0000
  C   C37       1.0  0.20090  0.62609  0.42478  1.0000
  C   C38       1.0  0.11728  0.56676  0.25483  1.0000
  C   C39       1.0  0.08630  0.55158  0.25350  1.0000
  C   C40       1.0  0.06959  0.53753  0.33144  1.0000
  C   C41       1.0  0.08539  0.54023  0.41159  1.0000
  C   C42       1.0  0.11637  0.55592  0.41346  1.0000
  H   H16       1.0  0.20539  0.67881  0.24074  1.0000
  H   H17       1.0  0.16855  0.62850  0.23350  1.0000
  H   H18       1.0  0.20100  0.61174  0.47104  1.0000
  H   H19       1.0  0.23978  0.66090  0.47388  1.0000
  H   H20       1.0  0.20444  0.59581  0.21105  1.0000
  H   H21       1.0  0.24264  0.58422  0.21701  1.0000
  H   H22       1.0  0.12857  0.57625  0.19700  1.0000
  H   H23       1.0  0.07602  0.55111  0.19467  1.0000
  H   H24       1.0  0.07441  0.53043  0.46964  1.0000
  H   H25       1.0  0.12699  0.55751  0.47256  1.0000
  H   H26       1.0  0.16476  0.54273  0.43796  1.0000
  H   H27       1.0  0.20107  0.52822  0.43822  1.0000
  N   N5        1.0  0.42627  0.58164  0.33631  1.0000
  C   C43       1.0  0.39544  0.56747  0.35334  1.0000
  C   C44       1.0  0.44168  0.56580  0.33495  1.0000
  C   C45       1.0  0.44075  0.61272  0.32325  1.0000
  C   C46       1.0  0.43038  0.62451  0.25672  1.0000
  C   C47       1.0  0.43726  0.65404  0.26064  1.0000
  C   C48       1.0  0.45573  0.67325  0.32891  1.0000
  C   C49       1.0  0.46869  0.66201  0.38890  1.0000
  C   C50       1.0  0.46080  0.63214  0.38759  1.0000
  C   C51       1.0  0.37513  0.54889  0.28822  1.0000
  C   C52       1.0  0.34548  0.54172  0.29172  1.0000
  C   C53       1.0  0.33507  0.55370  0.35826  1.0000
  C   C54       1.0  0.35546  0.57091  0.42627  1.0000
  C   C55       1.0  0.38481  0.57715  0.42505  1.0000
  C   C56       1.0  0.44399  0.55267  0.25495  1.0000
  C   C57       1.0  0.45914  0.53685  0.25359  1.0000
  C   C58       1.0  0.47322  0.53421  0.33148  1.0000
  C   C59       1.0  0.47057  0.54734  0.41162  1.0000
  C   C60       1.0  0.45490  0.56265  0.41352  1.0000
  H   H28       1.0  0.33193  0.52875  0.24157  1.0000
  H   H29       1.0  0.38222  0.54217  0.23408  1.0000
  H   H30       1.0  0.39919  0.59164  0.47118  1.0000
  H   H31       1.0  0.35004  0.58130  0.47421  1.0000
  H   H32       1.0  0.41505  0.61085  0.21113  1.0000
  H   H33       1.0  0.42670  0.66067  0.21692  1.0000
  H   H34       1.0  0.43447  0.55446  0.19716  1.0000
  H   H35       1.0  0.45958  0.52701  0.19477  1.0000
  H   H36       1.0  0.48040  0.54618  0.46963  1.0000
  H   H37       1.0  0.45336  0.57172  0.47262  1.0000
  H   H38       1.0  0.46819  0.62428  0.43793  1.0000
  H   H39       1.0  0.48274  0.67510  0.43801  1.0000
  N   N6        1.0  0.42915  0.84674  0.33578  1.0000
  C   C61       1.0  0.44335  0.83011  0.35287  1.0000
  C   C62       1.0  0.44498  0.87799  0.33448  1.0000
  C   C63       1.0  0.39807  0.83010  0.32273  1.0000
  C   C64       1.0  0.38632  0.80793  0.25628  1.0000
  C   C65       1.0  0.35680  0.78526  0.26033  1.0000
  C   C66       1.0  0.33755  0.78459  0.32836  1.0000
  C   C67       1.0  0.34877  0.80883  0.38819  1.0000
  C   C68       1.0  0.37865  0.83079  0.38694  1.0000
  C   C69       1.0  0.46198  0.82844  0.28777  1.0000
  C   C70       1.0  0.46918  0.80598  0.29135  1.0000
  C   C71       1.0  0.45722  0.78360  0.35794  1.0000
  C   C72       1.0  0.43999  0.78676  0.42593  1.0000
  C   C73       1.0  0.43370  0.80983  0.42465  1.0000
  C   C74       1.0  0.45810  0.89345  0.25451  1.0000
  C   C75       1.0  0.47391  0.92443  0.25322  1.0000
  C   C76       1.0  0.47656  0.94113  0.33116  1.0000
  C   C77       1.0  0.46343  0.92532  0.41128  1.0000
  C   C78       1.0  0.44813  0.89434  0.41311  1.0000
  H   H40       1.0  0.48217  0.80542  0.24122  1.0000
  H   H41       1.0  0.46867  0.84223  0.23361  1.0000
  H   H42       1.0  0.41920  0.80971  0.47074  1.0000
  H   H43       1.0  0.42963  0.77096  0.47388  1.0000
  H   H44       1.0  0.39998  0.80624  0.21075  1.0000
  H   H45       1.0  0.35015  0.76808  0.21657  1.0000
  H   H46       1.0  0.45632  0.88216  0.19669  1.0000
  H   H47       1.0  0.48375  0.93471  0.19442  1.0000
  H   H48       1.0  0.46459  0.93630  0.46931  1.0000
  H   H49       1.0  0.43907  0.88371  0.47218  1.0000
  H   H50       1.0  0.38650  0.84607  0.43719  1.0000
  H   H51       1.0  0.33568  0.80984  0.43721  1.0000
  N   N7        1.0  0.84856  0.42621  0.34188  1.0000
  C   C79       1.0  0.83229  0.39540  0.35914  1.0000
  C   C80       1.0  0.87978  0.44203  0.34006  1.0000
  C   C81       1.0  0.83162  0.44029  0.32876  1.0000
  C   C82       1.0  0.80943  0.42973  0.26241  1.0000
  C   C83       1.0  0.78667  0.43642  0.26669  1.0000
  C   C84       1.0  0.78591  0.45488  0.33497  1.0000
  C   C85       1.0  0.81014  0.46797  0.39485  1.0000
  C   C86       1.0  0.83227  0.46028  0.39326  1.0000
  C   C87       1.0  0.83133  0.37534  0.29443  1.0000
  C   C88       1.0  0.80936  0.34548  0.29805  1.0000
  C   C89       1.0  0.78684  0.33465  0.36426  1.0000
  C   C90       1.0  0.78933  0.35490  0.43183  1.0000
  C   C91       1.0  0.81192  0.38446  0.43064  1.0000
  C   C92       1.0  0.89507  0.45384  0.25889  1.0000
  C   C93       1.0  0.92605  0.46944  0.25697  1.0000
  C   C94       1.0  0.94284  0.47404  0.33621  1.0000
  C   C95       1.0  0.92719  0.46220  0.41745  1.0000
  C   C96       1.0  0.89621  0.44636  0.41932  1.0000
  H   H52       1.0  0.80923  0.33206  0.24814  1.0000
  H   H53       1.0  0.84532  0.38281  0.24066  1.0000
  H   H54       1.0  0.81134  0.39872  0.47627  1.0000
  H   H55       1.0  0.77337  0.34918  0.47939  1.0000
  H   H56       1.0  0.80785  0.41444  0.21684  1.0000
  H   H57       1.0  0.76947  0.42583  0.22299  1.0000
  H   H58       1.0  0.88364  0.45102  0.20059  1.0000
  H   H59       1.0  0.93628  0.47792  0.19690  1.0000
  H   H60       1.0  0.93826  0.46449  0.47619  1.0000
  H   H61       1.0  0.88561  0.43800  0.47896  1.0000
  H   H62       1.0  0.84766  0.46771  0.44331  1.0000
  H   H63       1.0  0.81099  0.48191  0.44421  1.0000
  N   N8        1.0  0.58455  0.42450  0.34180  1.0000
  C   C97       1.0  0.61536  0.43905  0.35909  1.0000
  C   C98       1.0  0.56871  0.43988  0.33999  1.0000
  C   C99       1.0  0.57049  0.39349  0.32864  1.0000
  C   C100      1.0  0.58107  0.38186  0.26234  1.0000
  C   C101      1.0  0.57441  0.35241  0.26665  1.0000
  C   C102      1.0  0.55596  0.33319  0.33493  1.0000
  C   C103      1.0  0.54286  0.34432  0.39482  1.0000
  C   C104      1.0  0.55051  0.37413  0.39316  1.0000
  C   C105      1.0  0.63541  0.45818  0.29442  1.0000
  C   C106      1.0  0.66528  0.46604  0.29798  1.0000
  C   C107      1.0  0.67611  0.45437  0.36423  1.0000
  C   C108      1.0  0.65586  0.43661  0.43181  1.0000
  C   C109      1.0  0.62630  0.42964  0.43061  1.0000
  C   C110      1.0  0.55689  0.44336  0.25883  1.0000
  C   C111      1.0  0.54127  0.45872  0.25693  1.0000
  C   C112      1.0  0.53668  0.47092  0.33616  1.0000
  C   C113      1.0  0.54853  0.46710  0.41740  1.0000
  C   C114      1.0  0.56438  0.45198  0.41925  1.0000
  H   H64       1.0  0.67868  0.47930  0.24804  1.0000
  H   H65       1.0  0.62795  0.46465  0.24052  1.0000
  H   H66       1.0  0.61204  0.41480  0.47623  1.0000
  H   H67       1.0  0.66158  0.42638  0.47938  1.0000
  H   H68       1.0  0.59636  0.39557  0.21676  1.0000
  H   H69       1.0  0.58501  0.34582  0.22295  1.0000
  H   H70       1.0  0.55971  0.43475  0.20053  1.0000
  H   H71       1.0  0.53280  0.46047  0.19684  1.0000
  H   H72       1.0  0.54626  0.47591  0.47612  1.0000
  H   H73       1.0  0.57276  0.44976  0.47888  1.0000
  H   H74       1.0  0.54306  0.38209  0.44318  1.0000
  H   H75       1.0  0.52891  0.33123  0.44413  1.0000
  N   N9        1.0  0.58627  0.16216  0.34193  1.0000
  C   C115      1.0  0.57173  0.17843  0.35921  1.0000
  C   C116      1.0  0.57088  0.13094  0.34006  1.0000
  C   C117      1.0  0.61728  0.17910  0.32879  1.0000
  C   C118      1.0  0.62891  0.20127  0.26238  1.0000
  C   C119      1.0  0.65836  0.22406  0.26676  1.0000
  C   C120      1.0  0.67757  0.22483  0.33505  1.0000
  C   C121      1.0  0.66643  0.20062  0.39500  1.0000
  C   C122      1.0  0.63663  0.17844  0.39327  1.0000
  C   C123      1.0  0.55261  0.17937  0.29455  1.0000
  C   C124      1.0  0.54476  0.20138  0.29809  1.0000
  C   C125      1.0  0.55647  0.22391  0.36428  1.0000
  C   C126      1.0  0.57421  0.22140  0.43189  1.0000
  C   C127      1.0  0.58116  0.19879  0.43071  1.0000
  C   C128      1.0  0.56740  0.11566  0.25886  1.0000
  C   C129      1.0  0.55204  0.08468  0.25690  1.0000
  C   C130      1.0  0.53983  0.06788  0.33610  1.0000
  C   C131      1.0  0.54363  0.08352  0.41737  1.0000
  C   C132      1.0  0.55877  0.11450  0.41929  1.0000
  H   H76       1.0  0.53151  0.20154  0.24814  1.0000
  H   H77       1.0  0.54613  0.16543  0.24066  1.0000
  H   H78       1.0  0.59601  0.19938  0.47632  1.0000
  H   H79       1.0  0.58446  0.23737  0.47941  1.0000
  H   H80       1.0  0.61517  0.20286  0.21696  1.0000
  H   H81       1.0  0.66495  0.24126  0.22308  1.0000
  H   H82       1.0  0.57602  0.12710  0.20058  1.0000
  H   H83       1.0  0.55029  0.07447  0.19680  1.0000
  H   H84       1.0  0.53484  0.07244  0.47609  1.0000
  H   H85       1.0  0.56099  0.12508  0.47895  1.0000
  H   H86       1.0  0.62865  0.16306  0.44336  1.0000
  H   H87       1.0  0.67953  0.19975  0.44426  1.0000
  C   C133      1.0  0.02208  0.52652  0.39800  1.0000
  C   C134      1.0  0.99114  0.51109  0.40022  1.0000
  H   H88       1.0  0.03302  0.54200  0.44663  1.0000
  H   H89       1.0  0.98086  0.51597  0.45010  1.0000
  C   C135      1.0  0.48424  0.49771  0.39805  1.0000
  C   C136      1.0  0.49967  0.48220  0.40023  1.0000
  H   H90       1.0  0.46879  0.49320  0.44674  1.0000
  H   H91       1.0  0.49480  0.46705  0.45016  1.0000
  C   C137      1.0  0.51304  0.98863  0.39784  1.0000
  C   C138      1.0  0.52854  0.01956  0.40008  1.0000
  H   H92       1.0  0.51755  0.97768  0.44649  1.0000
  H   H93       1.0  0.54369  0.02984  0.45003  1.0000
  C   C139      1.0  0.30624  0.55087  0.35295  1.0000
  C   C140      1.0  0.29161  0.55313  0.43001  1.0000
  C   C141      1.0  0.26532  0.55445  0.42486  1.0000
  C   C142      1.0  0.25160  0.55180  0.34001  1.0000
  H   H94       1.0  0.30052  0.55476  0.49222  1.0000
  N   N10       1.0  0.25411  0.56054  0.50362  1.0000
  O   O7        1.0  0.27194  0.58520  0.53636  1.0000
  O   O8        1.0  0.24764  0.54121  0.56296  1.0000
  C   C143      1.0  0.46010  0.75763  0.35266  1.0000
  C   C144      1.0  0.45790  0.74078  0.42976  1.0000
  C   C145      1.0  0.45656  0.71317  0.42467  1.0000
  C   C146      1.0  0.45919  0.70207  0.33983  1.0000
  H   H95       1.0  0.45625  0.74807  0.49196  1.0000
  N   N11       1.0  0.45050  0.69589  0.50347  1.0000
  O   O9        1.0  0.42585  0.68908  0.53627  1.0000
  O   O10       1.0  0.46984  0.70876  0.56275  1.0000
  C   C147      1.0  0.25315  0.70461  0.35231  1.0000
  C   C148      1.0  0.26998  0.71931  0.42939  1.0000
  C   C149      1.0  0.29759  0.74559  0.42423  1.0000
  C   C150      1.0  0.30873  0.75923  0.33932  1.0000
  H   H96       1.0  0.26265  0.71045  0.49163  1.0000
  N   N12       1.0  0.31483  0.75687  0.50308  1.0000
  O   O11       1.0  0.32161  0.73906  0.53623  1.0000
  O   O12       1.0  0.30193  0.76341  0.56209  1.0000
  C   C151      1.0  0.70525  0.45795  0.35902  1.0000
  C   C152      1.0  0.72000  0.45584  0.43605  1.0000
  C   C153      1.0  0.74652  0.45498  0.43085  1.0000
  C   C154      1.0  0.76040  0.45807  0.34606  1.0000
  H   H97       1.0  0.71094  0.45384  0.49822  1.0000
  N   N13       1.0  0.75783  0.44886  0.50935  1.0000
  O   O13       1.0  0.74022  0.42400  0.54130  1.0000
  O   O14       1.0  0.76396  0.46792  0.56932  1.0000
  C   C155      1.0  0.55292  0.24948  0.35905  1.0000
  C   C156      1.0  0.55502  0.26634  0.43607  1.0000
  C   C157      1.0  0.55586  0.29371  0.43086  1.0000
  C   C158      1.0  0.55281  0.30451  0.34605  1.0000
  H   H98       1.0  0.55697  0.25925  0.49826  1.0000
  N   N14       1.0  0.56195  0.31113  0.50937  1.0000
  O   O15       1.0  0.58680  0.31838  0.54141  1.0000
  O   O16       1.0  0.54286  0.29818  0.56928  1.0000
  C   C159      1.0  0.76129  0.30550  0.35910  1.0000
  C   C160      1.0  0.74443  0.29076  0.43612  1.0000
  C   C161      1.0  0.71705  0.26423  0.43093  1.0000
  C   C162      1.0  0.70626  0.25034  0.34615  1.0000
  H   H99       1.0  0.75150  0.29982  0.49830  1.0000
  N   N15       1.0  0.69963  0.25292  0.50944  1.0000
  O   O17       1.0  0.69238  0.27053  0.54139  1.0000
  O   O18       1.0  0.71258  0.24680  0.56940  1.0000
