data_image0
_chemical_formula_structural       C2HC3HNH2NO2C2HC3HNH2NO2C2HC3HNH2NO2C7H2NH2NO2C7H2NH2NO2C7H2NH2NO2C24H15C24H15C24H15C24H15C7H2NH2NO2C7H2NH2NO2C7H2NH2NO2C2HC3HNH2NO2C2HC3HNH2NO2C2HC3HNH2NO2
_chemical_formula_sum              "C168 H108 N24 O24"
_cell_length_a       57.5809
_cell_length_b       57.5808
_cell_length_c       14.9244
_cell_angle_alpha    90
_cell_angle_beta     90
_cell_angle_gamma    120

_space_group_name_H-M_alt    "P 1"
_space_group_IT_number       1

loop_
  _space_group_symop_operation_xyz
  'x, y, z'

loop_
  _atom_site_type_symbol
  _atom_site_label
  _atom_site_symmetry_multiplicity
  _atom_site_fract_x
  _atom_site_fract_y
  _atom_site_fract_z
  _atom_site_occupancy
  C   C1        1.0  0.18407  0.11419  0.31473  1.0000
  C   C2        1.0  0.15571  0.09858  0.31365  1.0000
  H   H1        1.0  0.14488  0.10741  0.29405  1.0000
  C   C3        1.0  0.28506  0.14349  0.33695  1.0000
  C   C4        1.0  0.26987  0.13573  0.25638  1.0000
  C   C5        1.0  0.24151  0.12187  0.26073  1.0000
  H   H2        1.0  0.23083  0.11643  0.20205  1.0000
  N   N1        1.0  0.19587  0.14055  0.29152  1.0000
  H   H3        1.0  0.18524  0.14869  0.27428  1.0000
  H   H4        1.0  0.21518  0.15232  0.29353  1.0000
  N   N2        1.0  0.28309  0.14274  0.17232  1.0000
  O   O1        1.0  0.27753  0.15799  0.12869  1.0000
  O   O2        1.0  0.27711  0.12233  0.12562  1.0000
  C   C6        1.0  0.88338  0.07035  0.31961  1.0000
  C   C7        1.0  0.89901  0.05761  0.32101  1.0000
  H   H5        1.0  0.89024  0.03781  0.30308  1.0000
  C   C8        1.0  0.85363  0.14203  0.33739  1.0000
  C   C9        1.0  0.86158  0.13459  0.25721  1.0000
  C   C10       1.0  0.87549  0.12012  0.26214  1.0000
  H   H6        1.0  0.88106  0.11490  0.20371  1.0000
  N   N3        1.0  0.85707  0.05562  0.29603  1.0000
  H   H7        1.0  0.84899  0.03674  0.28009  1.0000
  H   H8        1.0  0.84532  0.06318  0.29583  1.0000
  N   N4        1.0  0.85473  0.14080  0.17289  1.0000
  O   O3        1.0  0.83955  0.11998  0.12916  1.0000
  O   O4        1.0  0.87521  0.15523  0.12651  1.0000
  C   C11       1.0  0.92596  0.81308  0.31538  1.0000
  C   C12       1.0  0.93890  0.84147  0.31532  1.0000
  H   H9        1.0  0.95861  0.85223  0.29621  1.0000
  C   C13       1.0  0.85404  0.71203  0.33683  1.0000
  C   C14       1.0  0.86147  0.72723  0.25626  1.0000
  C   C15       1.0  0.87599  0.75561  0.26055  1.0000
  H   H10       1.0  0.88123  0.76628  0.20186  1.0000
  N   N5        1.0  0.94043  0.80119  0.29195  1.0000
  H   H11       1.0  0.95925  0.81178  0.27518  1.0000
  H   H12       1.0  0.93275  0.78186  0.29311  1.0000
  N   N6        1.0  0.85523  0.71400  0.17225  1.0000
  O   O5        1.0  0.87604  0.71954  0.12859  1.0000
  O   O6        1.0  0.84080  0.71996  0.12554  1.0000
  C   C16       1.0  0.64183  0.16491  0.34405  1.0000
  C   C17       1.0  0.61850  0.13969  0.33026  1.0000
  C   C18       1.0  0.59304  0.13783  0.33374  1.0000
  C   C19       1.0  0.59037  0.16063  0.34896  1.0000
  C   C20       1.0  0.56439  0.15791  0.34352  1.0000
  C   C21       1.0  0.55188  0.15654  0.25997  1.0000
  C   C22       1.0  0.52808  0.15805  0.25979  1.0000
  H   H13       1.0  0.51942  0.15766  0.19940  1.0000
  H   H14       1.0  0.57628  0.11966  0.32161  1.0000
  N   N7        1.0  0.56239  0.15506  0.17983  1.0000
  H   H15       1.0  0.57903  0.15470  0.17576  1.0000
  H   H16       1.0  0.55366  0.15461  0.12345  1.0000
  N   N8        1.0  0.62123  0.11720  0.30934  1.0000
  O   O7        1.0  0.61206  0.10819  0.23277  1.0000
  O   O8        1.0  0.60934  0.09874  0.36569  1.0000
  C   C23       1.0  0.83183  0.47782  0.34385  1.0000
  C   C24       1.0  0.85704  0.47971  0.33004  1.0000
  C   C25       1.0  0.85888  0.45609  0.33350  1.0000
  C   C26       1.0  0.83608  0.43063  0.34889  1.0000
  C   C27       1.0  0.83876  0.40734  0.34352  1.0000
  C   C28       1.0  0.84005  0.39612  0.26001  1.0000
  C   C29       1.0  0.83852  0.37081  0.25992  1.0000
  H   H17       1.0  0.83885  0.36250  0.19954  1.0000
  H   H18       1.0  0.87706  0.45750  0.32139  1.0000
  N   N9        1.0  0.84149  0.40809  0.17983  1.0000
  H   H19       1.0  0.84189  0.42510  0.17571  1.0000
  H   H20       1.0  0.84191  0.39978  0.12347  1.0000
  N   N10       1.0  0.87953  0.50494  0.30913  1.0000
  O   O9        1.0  0.88854  0.50480  0.23257  1.0000
  O   O10       1.0  0.89798  0.51152  0.36550  1.0000
  C   C30       1.0  0.51881  0.35525  0.34396  1.0000
  C   C31       1.0  0.51686  0.37854  0.33027  1.0000
  C   C32       1.0  0.54045  0.40401  0.33384  1.0000
  C   C33       1.0  0.56591  0.40667  0.34903  1.0000
  C   C34       1.0  0.58915  0.43263  0.34358  1.0000
  C   C35       1.0  0.60033  0.44511  0.26001  1.0000
  C   C36       1.0  0.62565  0.46887  0.25985  1.0000
  H   H21       1.0  0.63394  0.47751  0.19947  1.0000
  H   H22       1.0  0.53902  0.42077  0.32174  1.0000
  N   N11       1.0  0.58834  0.43457  0.17987  1.0000
  H   H23       1.0  0.57132  0.41795  0.17581  1.0000
  H   H24       1.0  0.59663  0.44327  0.12348  1.0000
  N   N12       1.0  0.49162  0.37577  0.30937  1.0000
  O   O11       1.0  0.49176  0.38494  0.23283  1.0000
  O   O12       1.0  0.48502  0.38761  0.36579  1.0000
  C   C37       1.0  0.98373  0.01386  0.33508  1.0000
  C   C38       1.0  0.01209  0.02751  0.33195  1.0000
  C   C39       1.0  0.02674  0.01374  0.33122  1.0000
  C   C40       1.0  0.01195  0.98533  0.33189  1.0000
  C   C41       1.0  0.98353  0.97067  0.33435  1.0000
  C   C42       1.0  0.96992  0.98547  0.33644  1.0000
  C   C43       1.0  0.05556  0.02812  0.33214  1.0000
  C   C44       1.0  0.07008  0.05089  0.38773  1.0000
  C   C45       1.0  0.09831  0.06501  0.38952  1.0000
  C   C46       1.0  0.11317  0.05674  0.33633  1.0000
  C   C47       1.0  0.09888  0.03404  0.28074  1.0000
  C   C48       1.0  0.07062  0.02003  0.27870  1.0000
  C   C49       1.0  0.96952  0.02839  0.33813  1.0000
  C   C50       1.0  0.97583  0.04990  0.27852  1.0000
  C   C51       1.0  0.96184  0.06415  0.28140  1.0000
  C   C52       1.0  0.94103  0.05738  0.34415  1.0000
  C   C53       1.0  0.93466  0.03599  0.40396  1.0000
  C   C54       1.0  0.94873  0.02180  0.40112  1.0000
  C   C55       1.0  0.96901  0.94184  0.33575  1.0000
  C   C56       1.0  0.94559  0.92689  0.28342  1.0000
  C   C57       1.0  0.93129  0.89864  0.28493  1.0000
  C   C58       1.0  0.93988  0.88417  0.33888  1.0000
  C   C59       1.0  0.96334  0.89893  0.39078  1.0000
  C   C60       1.0  0.97754  0.92719  0.38944  1.0000
  H   H25       1.0  0.96667  0.07927  0.23618  1.0000
  H   H26       1.0  0.99039  0.05506  0.23087  1.0000
  H   H27       1.0  0.91981  0.03068  0.45062  1.0000
  H   H28       1.0  0.94380  0.00672  0.44654  1.0000
  H   H29       1.0  0.93891  0.93648  0.24198  1.0000
  H   H30       1.0  0.91470  0.88866  0.24503  1.0000
  H   H31       1.0  0.99402  0.93700  0.42983  1.0000
  H   H32       1.0  0.97006  0.88918  0.43131  1.0000
  H   H33       1.0  0.06112  0.00402  0.23617  1.0000
  H   H34       1.0  0.10898  0.02773  0.24018  1.0000
  H   H35       1.0  0.10796  0.08120  0.43129  1.0000
  H   H36       1.0  0.06019  0.05722  0.42918  1.0000
  H   H37       1.0  0.02234  0.04804  0.33118  1.0000
  H   H38       1.0  0.94940  0.97533  0.33926  1.0000
  H   H39       1.0  0.02216  0.97502  0.33127  1.0000
  C   C61       1.0  0.44302  0.24478  0.33195  1.0000
  C   C62       1.0  0.41474  0.22993  0.33528  1.0000
  C   C63       1.0  0.40050  0.20144  0.33784  1.0000
  C   C64       1.0  0.41572  0.18815  0.33684  1.0000
  C   C65       1.0  0.44408  0.20237  0.33268  1.0000
  C   C66       1.0  0.45719  0.23068  0.33266  1.0000
  C   C67       1.0  0.37165  0.18667  0.33866  1.0000
  C   C68       1.0  0.35670  0.19568  0.38848  1.0000
  C   C69       1.0  0.32846  0.18161  0.38770  1.0000
  C   C70       1.0  0.31383  0.15776  0.33737  1.0000
  C   C71       1.0  0.32864  0.14841  0.28883  1.0000
  C   C72       1.0  0.35689  0.16265  0.28894  1.0000
  C   C73       1.0  0.45782  0.27328  0.32626  1.0000
  C   C74       1.0  0.45740  0.28946  0.39682  1.0000
  C   C75       1.0  0.47658  0.31705  0.40049  1.0000
  C   C76       1.0  0.49651  0.32896  0.33356  1.0000
  C   C77       1.0  0.49598  0.31313  0.26047  1.0000
  C   C78       1.0  0.47686  0.28570  0.25682  1.0000
  C   C79       1.0  0.45981  0.18944  0.32744  1.0000
  C   C80       1.0  0.48214  0.19955  0.26890  1.0000
  C   C81       1.0  0.50025  0.18997  0.27174  1.0000
  C   C82       1.0  0.49647  0.16925  0.33137  1.0000
  C   C83       1.0  0.47317  0.15785  0.38568  1.0000
  C   C84       1.0  0.45521  0.16782  0.38405  1.0000
  H   H40       1.0  0.47713  0.32788  0.45564  1.0000
  H   H41       1.0  0.44464  0.28090  0.44988  1.0000
  H   H42       1.0  0.51047  0.32110  0.21190  1.0000
  H   H43       1.0  0.47806  0.27448  0.20568  1.0000
  H   H44       1.0  0.48617  0.21493  0.22572  1.0000
  H   H45       1.0  0.51698  0.19923  0.23210  1.0000
  H   H46       1.0  0.43952  0.16009  0.42825  1.0000
  H   H47       1.0  0.46952  0.14269  0.42928  1.0000
  H   H48       1.0  0.36657  0.15540  0.25054  1.0000
  H   H49       1.0  0.31894  0.13096  0.25299  1.0000
  H   H50       1.0  0.31862  0.18918  0.42379  1.0000
  H   H51       1.0  0.36626  0.21261  0.42698  1.0000
  H   H52       1.0  0.40446  0.24016  0.33225  1.0000
  H   H53       1.0  0.47774  0.24146  0.33345  1.0000
  H   H54       1.0  0.40600  0.16765  0.33818  1.0000
  C   C85       1.0  0.75232  0.19905  0.33220  1.0000
  C   C86       1.0  0.76716  0.18559  0.33552  1.0000
  C   C87       1.0  0.79568  0.19979  0.33763  1.0000
  C   C88       1.0  0.80899  0.22831  0.33635  1.0000
  C   C89       1.0  0.79479  0.24251  0.33241  1.0000
  C   C90       1.0  0.76649  0.22732  0.33281  1.0000
  C   C91       1.0  0.81043  0.18563  0.33842  1.0000
  C   C92       1.0  0.80141  0.16165  0.38823  1.0000
  C   C93       1.0  0.81547  0.14745  0.38763  1.0000
  C   C94       1.0  0.83931  0.15655  0.33732  1.0000
  C   C95       1.0  0.84864  0.18070  0.28862  1.0000
  C   C96       1.0  0.83445  0.19478  0.28872  1.0000
  C   C97       1.0  0.72379  0.18548  0.32655  1.0000
  C   C98       1.0  0.70752  0.16891  0.39704  1.0000
  C   C99       1.0  0.67998  0.16074  0.40079  1.0000
  C   C100      1.0  0.66813  0.16886  0.33392  1.0000
  C   C101      1.0  0.68406  0.18416  0.26100  1.0000
  C   C102      1.0  0.71145  0.19225  0.25722  1.0000
  C   C103      1.0  0.80766  0.27119  0.32712  1.0000
  C   C104      1.0  0.79746  0.28336  0.26868  1.0000
  C   C105      1.0  0.80685  0.31102  0.27172  1.0000
  C   C106      1.0  0.82744  0.32801  0.33165  1.0000
  C   C107      1.0  0.83893  0.31618  0.38595  1.0000
  C   C108      1.0  0.82916  0.28828  0.38402  1.0000
  H   H55       1.0  0.66908  0.15036  0.45571  1.0000
  H   H56       1.0  0.71600  0.16458  0.45002  1.0000
  H   H57       1.0  0.67618  0.19078  0.21245  1.0000
  H   H58       1.0  0.72271  0.20469  0.20619  1.0000
  H   H59       1.0  0.78213  0.27196  0.22539  1.0000
  H   H60       1.0  0.79750  0.31840  0.23215  1.0000
  H   H61       1.0  0.83698  0.28039  0.42813  1.0000
  H   H62       1.0  0.85404  0.32773  0.42964  1.0000
  H   H63       1.0  0.84175  0.21173  0.25037  1.0000
  H   H64       1.0  0.86610  0.18843  0.25280  1.0000
  H   H65       1.0  0.80788  0.13007  0.42392  1.0000
  H   H66       1.0  0.78450  0.15433  0.42681  1.0000
  H   H67       1.0  0.75690  0.16509  0.33258  1.0000
  H   H68       1.0  0.75575  0.23713  0.33379  1.0000
  H   H69       1.0  0.82949  0.23909  0.33742  1.0000
  C   C109      1.0  0.79744  0.55393  0.33209  1.0000
  C   C110      1.0  0.81086  0.58222  0.33551  1.0000
  C   C111      1.0  0.79662  0.59648  0.33784  1.0000
  C   C112      1.0  0.76811  0.58126  0.33674  1.0000
  C   C113      1.0  0.75396  0.55289  0.33268  1.0000
  C   C114      1.0  0.76916  0.53978  0.33277  1.0000
  C   C115      1.0  0.81070  0.62536  0.33858  1.0000
  C   C116      1.0  0.83466  0.64036  0.38839  1.0000
  C   C117      1.0  0.84878  0.66861  0.38767  1.0000
  C   C118      1.0  0.83956  0.68324  0.33731  1.0000
  C   C119      1.0  0.81541  0.66837  0.28874  1.0000
  C   C120      1.0  0.80143  0.64012  0.28886  1.0000
  C   C121      1.0  0.81108  0.53906  0.32645  1.0000
  C   C122      1.0  0.82760  0.53934  0.39709  1.0000
  C   C123      1.0  0.83591  0.52008  0.40071  1.0000
  C   C124      1.0  0.82788  0.50017  0.33370  1.0000
  C   C125      1.0  0.81260  0.50078  0.26067  1.0000
  C   C126      1.0  0.80440  0.51999  0.25702  1.0000
  C   C127      1.0  0.72530  0.53714  0.32746  1.0000
  C   C128      1.0  0.71308  0.51478  0.26906  1.0000
  C   C129      1.0  0.68539  0.49666  0.27189  1.0000
  C   C130      1.0  0.66846  0.50045  0.33153  1.0000
  C   C131      1.0  0.68036  0.52375  0.38582  1.0000
  C   C132      1.0  0.70828  0.54174  0.38406  1.0000
  H   H70       1.0  0.84627  0.51956  0.45567  1.0000
  H   H71       1.0  0.83193  0.55218  0.45000  1.0000
  H   H72       1.0  0.80600  0.48628  0.21213  1.0000
  H   H73       1.0  0.79197  0.51881  0.20595  1.0000
  H   H74       1.0  0.72443  0.51077  0.22579  1.0000
  H   H75       1.0  0.67793  0.47994  0.23224  1.0000
  H   H76       1.0  0.71622  0.55745  0.42819  1.0000
  H   H77       1.0  0.66883  0.52742  0.42931  1.0000
  H   H78       1.0  0.78449  0.63041  0.25050  1.0000
  H   H79       1.0  0.80763  0.67805  0.25287  1.0000
  H   H80       1.0  0.86618  0.67847  0.42379  1.0000
  H   H81       1.0  0.84204  0.63082  0.42692  1.0000
  H   H82       1.0  0.83137  0.59249  0.33249  1.0000
  H   H83       1.0  0.75938  0.51923  0.33363  1.0000
  H   H84       1.0  0.75732  0.59097  0.33799  1.0000
  C   C133      1.0  0.14181  0.07118  0.33819  1.0000
  C   C134      1.0  0.15686  0.05903  0.36536  1.0000
  C   C135      1.0  0.18522  0.07444  0.36615  1.0000
  C   C136      1.0  0.19905  0.10179  0.34141  1.0000
  C   C137      1.0  0.22768  0.11579  0.34327  1.0000
  C   C138      1.0  0.24267  0.12364  0.42439  1.0000
  C   C139      1.0  0.27103  0.13718  0.41945  1.0000
  H   H85       1.0  0.28178  0.14255  0.47797  1.0000
  H   H86       1.0  0.19587  0.06543  0.38591  1.0000
  N   N13       1.0  0.23088  0.11905  0.50653  1.0000
  H   H87       1.0  0.21156  0.11055  0.51352  1.0000
  H   H88       1.0  0.24152  0.12486  0.56120  1.0000
  N   N14       1.0  0.14334  0.03197  0.39430  1.0000
  O   O13       1.0  0.14948  0.01776  0.34716  1.0000
  O   O14       1.0  0.14855  0.03004  0.47482  1.0000
  C   C140      1.0  0.92640  0.07136  0.34548  1.0000
  C   C141      1.0  0.93855  0.09877  0.36993  1.0000
  C   C142      1.0  0.92307  0.11165  0.36873  1.0000
  C   C143      1.0  0.89569  0.09791  0.34403  1.0000
  C   C144      1.0  0.88151  0.11242  0.34493  1.0000
  C   C145      1.0  0.87345  0.11956  0.42563  1.0000
  C   C146      1.0  0.85982  0.13430  0.42008  1.0000
  H   H89       1.0  0.85434  0.13966  0.47841  1.0000
  H   H90       1.0  0.93205  0.13145  0.38679  1.0000
  N   N15       1.0  0.87795  0.11242  0.50802  1.0000
  H   H91       1.0  0.88651  0.10168  0.51548  1.0000
  H   H92       1.0  0.87201  0.11724  0.56245  1.0000
  N   N16       1.0  0.96572  0.11257  0.39758  1.0000
  O   O15       1.0  0.97974  0.13234  0.34792  1.0000
  O   O16       1.0  0.96800  0.12065  0.47707  1.0000
  C   C147      1.0  0.92553  0.85548  0.34008  1.0000
  C   C148      1.0  0.89821  0.84045  0.36619  1.0000
  C   C149      1.0  0.88510  0.81207  0.36607  1.0000
  C   C150      1.0  0.89852  0.79814  0.34126  1.0000
  C   C151      1.0  0.88378  0.76948  0.34304  1.0000
  C   C152      1.0  0.87661  0.75447  0.42414  1.0000
  C   C153      1.0  0.86179  0.72610  0.41925  1.0000
  H   H93       1.0  0.85643  0.71537  0.47780  1.0000
  H   H94       1.0  0.86539  0.80148  0.38529  1.0000
  N   N17       1.0  0.88382  0.76627  0.50629  1.0000
  H   H95       1.0  0.89463  0.78558  0.51329  1.0000
  H   H96       1.0  0.87899  0.75562  0.56095  1.0000
  N   N18       1.0  0.88469  0.85399  0.39509  1.0000
  O   O17       1.0  0.86454  0.84813  0.34722  1.0000
  O   O18       1.0  0.87726  0.84856  0.47528  1.0000
  C   C154      1.0  0.61378  0.18600  0.36353  1.0000
  C   C155      1.0  0.63908  0.18754  0.36153  1.0000
  H   H97       1.0  0.65603  0.20583  0.37054  1.0000
  C   C156      1.0  0.51694  0.16208  0.33891  1.0000
  C   C157      1.0  0.52921  0.16265  0.42216  1.0000
  C   C158      1.0  0.55243  0.16009  0.42335  1.0000
  H   H98       1.0  0.56173  0.16171  0.48344  1.0000
  N   N19       1.0  0.61308  0.20907  0.37665  1.0000
  H   H99       1.0  0.62945  0.22618  0.38548  1.0000
  H   H100      1.0  0.59643  0.20945  0.37590  1.0000
  N   N20       1.0  0.51948  0.16770  0.50275  1.0000
  O   O19       1.0  0.53660  0.18918  0.53929  1.0000
  O   O20       1.0  0.51248  0.14882  0.55777  1.0000
  C   C159      1.0  0.81073  0.42870  0.36357  1.0000
  C   C160      1.0  0.80920  0.45246  0.36155  1.0000
  H   H101      1.0  0.79092  0.45114  0.37058  1.0000
  C   C161      1.0  0.83454  0.35566  0.33910  1.0000
  C   C162      1.0  0.83402  0.36743  0.42227  1.0000
  C   C163      1.0  0.83663  0.39323  0.42337  1.0000
  H   H102      1.0  0.83503  0.40095  0.48343  1.0000
  N   N21       1.0  0.78766  0.40495  0.37686  1.0000
  H   H103      1.0  0.77055  0.40422  0.38579  1.0000
  H   H104      1.0  0.78725  0.38790  0.37615  1.0000
  N   N22       1.0  0.82898  0.35269  0.50294  1.0000
  O   O21       1.0  0.80753  0.34840  0.53953  1.0000
  O   O22       1.0  0.84788  0.36459  0.55786  1.0000
  C   C164      1.0  0.56791  0.38328  0.36357  1.0000
  C   C165      1.0  0.54418  0.35799  0.36153  1.0000
  H   H105      1.0  0.54552  0.34104  0.37047  1.0000
  C   C166      1.0  0.64080  0.48000  0.33900  1.0000
  C   C167      1.0  0.62908  0.46775  0.42226  1.0000
  C   C168      1.0  0.60328  0.44458  0.42343  1.0000
  H   H106      1.0  0.59557  0.43528  0.48352  1.0000
  N   N23       1.0  0.59168  0.38399  0.37665  1.0000
  H   H107      1.0  0.59244  0.36762  0.38545  1.0000
  H   H108      1.0  0.60872  0.40065  0.37590  1.0000
  N   N24       1.0  0.64385  0.47743  0.50288  1.0000
  O   O23       1.0  0.64814  0.46026  0.53937  1.0000
  O   O24       1.0  0.63199  0.48445  0.55792  1.0000
