data_image0
_chemical_formula_structural       C4HC6HO2C4HC6HO2CNCHNHCNCHNHCNCHNHCNCHNHC4HC6HO2C4HC6HO2C4HC6HO2C4HC6HO2CNCHNHCNCHNHCNCHNHCNCHNHC4HC6HO2C4HC6HO2C4HC6HO2C4HC6HO2CNCNCNCNCNCNCNCNCNCNCNCNCNCNCNCNCNCNCNCNCNCNCNCNCNCNCNCNCNCNCNCNCNCNCNCNCNCHNHCNCHNHC4HC6HO2C4HC6HO2C4HC6HO2C4HC6HO2CNCHNHCNCHNHCNCHNHCNCHNHC4HC6HO2C4HC6HO2C4HC6HO2C4HC6HO2CNCHNHCNCHNHCNCHNHCNCHNH
_chemical_formula_sum              "C252 H72 O36 N72"
_cell_length_a       50.8418
_cell_length_b       50.6813
_cell_length_c       14.8394
_cell_angle_alpha    90
_cell_angle_beta     90
_cell_angle_gamma    90.1862

_space_group_name_H-M_alt    "P 1"
_space_group_IT_number       1

loop_
  _space_group_symop_operation_xyz
  'x, y, z'

loop_
  _atom_site_type_symbol
  _atom_site_label
  _atom_site_symmetry_multiplicity
  _atom_site_fract_x
  _atom_site_fract_y
  _atom_site_fract_z
  _atom_site_occupancy
  C   C1        1.0  0.05283  0.45569  0.34112  1.0000
  C   C2        1.0  0.01358  0.49510  0.33856  1.0000
  C   C3        1.0  0.02385  0.48550  0.25562  1.0000
  C   C4        1.0  0.04355  0.46577  0.25834  1.0000
  H   H1        1.0  0.05124  0.45856  0.19953  1.0000
  C   C5        1.0  0.99389  0.51485  0.33869  1.0000
  C   C6        1.0  0.95459  0.55420  0.34180  1.0000
  C   C7        1.0  0.96452  0.54487  0.25889  1.0000
  C   C8        1.0  0.98422  0.52515  0.25588  1.0000
  C   C9        1.0  0.99450  0.51544  0.17376  1.0000
  C   C10       1.0  0.01412  0.49584  0.17362  1.0000
  H   H2        1.0  0.95726  0.55258  0.20017  1.0000
  O   O1        1.0  0.98575  0.52475  0.09361  1.0000
  O   O2        1.0  0.02338  0.48714  0.09336  1.0000
  C   C11       1.0  0.55261  0.05209  0.34139  1.0000
  C   C12       1.0  0.51329  0.01252  0.33867  1.0000
  C   C13       1.0  0.52309  0.02267  0.25574  1.0000
  C   C14       1.0  0.54278  0.04253  0.25855  1.0000
  H   H3        1.0  0.55014  0.05015  0.19975  1.0000
  C   C15       1.0  0.49358  0.99267  0.33875  1.0000
  C   C16       1.0  0.45429  0.95308  0.34178  1.0000
  C   C17       1.0  0.46382  0.96287  0.25886  1.0000
  C   C18       1.0  0.48351  0.98272  0.25590  1.0000
  C   C19       1.0  0.49339  0.99291  0.17379  1.0000
  C   C20       1.0  0.51295  0.01269  0.17371  1.0000
  H   H4        1.0  0.45626  0.95542  0.20013  1.0000
  O   O3        1.0  0.48428  0.98391  0.09361  1.0000
  O   O4        1.0  0.52182  0.02186  0.09345  1.0000
  C   C21       1.0  0.05182  0.24231  0.26620  1.0000
  N   N1        1.0  0.05721  0.26854  0.27080  1.0000
  C   C22       1.0  0.07397  0.34920  0.26737  1.0000
  H   H5        1.0  0.04979  0.23368  0.20429  1.0000
  N   N2        1.0  0.06848  0.32298  0.27138  1.0000
  H   H6        1.0  0.07583  0.35798  0.20565  1.0000
  C   C23       1.0  0.95528  0.76760  0.26593  1.0000
  N   N3        1.0  0.94987  0.74137  0.27051  1.0000
  C   C24       1.0  0.93264  0.66079  0.26709  1.0000
  H   H7        1.0  0.95675  0.77635  0.20403  1.0000
  N   N4        1.0  0.93835  0.68697  0.27109  1.0000
  H   H8        1.0  0.93016  0.65214  0.20540  1.0000
  C   C25       1.0  0.76544  0.05243  0.26576  1.0000
  N   N5        1.0  0.73928  0.05761  0.27033  1.0000
  C   C26       1.0  0.65890  0.07432  0.26696  1.0000
  H   H9        1.0  0.77416  0.05099  0.20386  1.0000
  N   N6        1.0  0.68500  0.06875  0.27091  1.0000
  H   H10       1.0  0.65025  0.07664  0.20526  1.0000
  C   C27       1.0  0.24247  0.95734  0.26577  1.0000
  N   N7        1.0  0.26846  0.95136  0.27046  1.0000
  C   C28       1.0  0.34834  0.93267  0.26727  1.0000
  H   H11       1.0  0.23398  0.95969  0.20383  1.0000
  N   N8        1.0  0.32238  0.93880  0.27121  1.0000
  H   H12       1.0  0.35714  0.93098  0.20558  1.0000
  C   C29       1.0  0.45828  0.72531  0.34255  1.0000
  C   C30       1.0  0.44666  0.77970  0.33903  1.0000
  C   C31       1.0  0.44919  0.76576  0.25624  1.0000
  C   C32       1.0  0.45500  0.73845  0.25944  1.0000
  H   H13       1.0  0.45687  0.72795  0.20082  1.0000
  C   C33       1.0  0.44078  0.80699  0.33889  1.0000
  C   C34       1.0  0.42890  0.86135  0.34181  1.0000
  C   C35       1.0  0.43140  0.84794  0.25888  1.0000
  C   C36       1.0  0.43739  0.82066  0.25596  1.0000
  C   C37       1.0  0.43997  0.80667  0.17394  1.0000
  C   C38       1.0  0.44581  0.77950  0.17408  1.0000
  H   H14       1.0  0.42870  0.85820  0.20014  1.0000
  O   O5        1.0  0.43686  0.81903  0.09369  1.0000
  O   O6        1.0  0.44809  0.76687  0.09396  1.0000
  C   C39       1.0  0.54952  0.28026  0.34253  1.0000
  C   C40       1.0  0.56063  0.22574  0.33893  1.0000
  C   C41       1.0  0.55736  0.23954  0.25619  1.0000
  C   C42       1.0  0.55176  0.26690  0.25942  1.0000
  H   H15       1.0  0.54931  0.27728  0.20082  1.0000
  C   C43       1.0  0.56626  0.19839  0.33871  1.0000
  C   C44       1.0  0.57775  0.14392  0.34136  1.0000
  C   C45       1.0  0.57444  0.15720  0.25851  1.0000
  C   C46       1.0  0.56867  0.18453  0.25574  1.0000
  C   C47       1.0  0.56542  0.19840  0.17377  1.0000
  C   C48       1.0  0.55982  0.22562  0.17398  1.0000
  H   H16       1.0  0.57649  0.14682  0.19970  1.0000
  O   O7        1.0  0.56769  0.18587  0.09347  1.0000
  O   O8        1.0  0.55692  0.23812  0.09389  1.0000
  C   C49       1.0  0.72722  0.54970  0.34271  1.0000
  C   C50       1.0  0.78155  0.56140  0.33919  1.0000
  C   C51       1.0  0.76772  0.55842  0.25641  1.0000
  C   C52       1.0  0.74046  0.55255  0.25962  1.0000
  H   H17       1.0  0.73005  0.55032  0.20098  1.0000
  C   C53       1.0  0.80880  0.56729  0.33901  1.0000
  C   C54       1.0  0.86311  0.57915  0.34175  1.0000
  C   C55       1.0  0.84978  0.57622  0.25886  1.0000
  C   C56       1.0  0.82253  0.57025  0.25604  1.0000
  C   C57       1.0  0.80864  0.56729  0.17404  1.0000
  C   C58       1.0  0.78151  0.56143  0.17422  1.0000
  H   H18       1.0  0.86007  0.57864  0.20007  1.0000
  O   O9        1.0  0.82105  0.57004  0.09376  1.0000
  O   O10       1.0  0.76899  0.55878  0.09410  1.0000
  C   C59       1.0  0.28070  0.45647  0.34284  1.0000
  C   C60       1.0  0.22615  0.44622  0.33901  1.0000
  C   C61       1.0  0.23996  0.44945  0.25632  1.0000
  C   C62       1.0  0.26734  0.45464  0.25967  1.0000
  H   H19       1.0  0.27774  0.45712  0.20113  1.0000
  C   C63       1.0  0.19876  0.44104  0.33872  1.0000
  C   C64       1.0  0.14425  0.43042  0.34132  1.0000
  C   C65       1.0  0.15751  0.43368  0.25847  1.0000
  C   C66       1.0  0.18488  0.43903  0.25572  1.0000
  C   C67       1.0  0.19876  0.44220  0.17379  1.0000
  C   C68       1.0  0.22603  0.44738  0.17408  1.0000
  H   H20       1.0  0.14711  0.43185  0.19966  1.0000
  O   O11       1.0  0.18622  0.44028  0.09347  1.0000
  O   O12       1.0  0.23855  0.45024  0.09404  1.0000
  C   C69       1.0  0.08726  0.12499  0.26671  1.0000
  N   N9        1.0  0.10311  0.10355  0.27121  1.0000
  C   C70       1.0  0.14816  0.03528  0.26601  1.0000
  H   H21       1.0  0.08176  0.13192  0.20478  1.0000
  N   N10       1.0  0.13408  0.05793  0.27087  1.0000
  H   H22       1.0  0.15238  0.02758  0.20398  1.0000
  C   C71       1.0  0.92066  0.88468  0.26725  1.0000
  N   N11       1.0  0.90500  0.90626  0.27198  1.0000
  C   C72       1.0  0.85989  0.97457  0.26746  1.0000
  H   H23       1.0  0.92575  0.87751  0.20525  1.0000
  N   N12       1.0  0.87408  0.95198  0.27209  1.0000
  H   H24       1.0  0.85517  0.98201  0.20549  1.0000
  C   C73       1.0  0.88231  0.08905  0.26677  1.0000
  N   N13       1.0  0.90400  0.10466  0.27146  1.0000
  C   C74       1.0  0.97325  0.14835  0.26685  1.0000
  H   H25       1.0  0.87557  0.08334  0.20480  1.0000
  N   N14       1.0  0.95024  0.13479  0.27151  1.0000
  H   H26       1.0  0.98116  0.15229  0.20489  1.0000
  C   C75       1.0  0.12527  0.92123  0.26646  1.0000
  N   N15       1.0  0.10371  0.90546  0.27133  1.0000
  C   C76       1.0  0.03481  0.86133  0.26708  1.0000
  H   H27       1.0  0.13187  0.92709  0.20448  1.0000
  N   N16       1.0  0.05775  0.87501  0.27164  1.0000
  H   H28       1.0  0.02682  0.85749  0.20519  1.0000
  C   C77       1.0  0.42923  0.63455  0.34174  1.0000
  C   C78       1.0  0.39650  0.58968  0.33806  1.0000
  C   C79       1.0  0.40503  0.60093  0.25521  1.0000
  C   C80       1.0  0.42156  0.62344  0.25851  1.0000
  H   H29       1.0  0.42887  0.63132  0.20001  1.0000
  C   C81       1.0  0.38112  0.56640  0.33820  1.0000
  C   C82       1.0  0.35273  0.51868  0.34239  1.0000
  C   C83       1.0  0.35984  0.53006  0.25902  1.0000
  C   C84       1.0  0.37407  0.55409  0.25548  1.0000
  C   C85       1.0  0.38225  0.56562  0.17325  1.0000
  C   C86       1.0  0.39759  0.58884  0.17312  1.0000
  H   H30       1.0  0.35546  0.52019  0.20064  1.0000
  O   O13       1.0  0.37603  0.55433  0.09322  1.0000
  O   O14       1.0  0.40550  0.59892  0.09296  1.0000
  C   C87       1.0  0.57828  0.37124  0.34163  1.0000
  C   C88       1.0  0.61105  0.41614  0.33763  1.0000
  C   C89       1.0  0.60203  0.40517  0.25494  1.0000
  C   C90       1.0  0.58549  0.38267  0.25841  1.0000
  H   H31       1.0  0.57786  0.37499  0.20009  1.0000
  C   C91       1.0  0.62656  0.43935  0.33758  1.0000
  C   C92       1.0  0.65542  0.48687  0.34135  1.0000
  C   C93       1.0  0.64763  0.47580  0.25819  1.0000
  C   C94       1.0  0.63322  0.45187  0.25483  1.0000
  C   C95       1.0  0.62451  0.44064  0.17276  1.0000
  C   C96       1.0  0.60905  0.41750  0.17282  1.0000
  H   H32       1.0  0.65171  0.48582  0.19984  1.0000
  O   O15       1.0  0.63035  0.45212  0.09272  1.0000
  O   O16       1.0  0.60068  0.40768  0.09283  1.0000
  C   C97       1.0  0.63656  0.57811  0.34149  1.0000
  C   C98       1.0  0.59139  0.61011  0.33762  1.0000
  C   C99       1.0  0.60231  0.60113  0.25491  1.0000
  C   C100      1.0  0.62494  0.58495  0.25834  1.0000
  H   H33       1.0  0.63257  0.57731  0.20003  1.0000
  C   C101      1.0  0.56806  0.62521  0.33767  1.0000
  C   C102      1.0  0.52040  0.65335  0.34170  1.0000
  C   C103      1.0  0.53139  0.64557  0.25851  1.0000
  C   C104      1.0  0.55538  0.63151  0.25501  1.0000
  C   C105      1.0  0.56656  0.62285  0.17292  1.0000
  C   C106      1.0  0.58982  0.60779  0.17287  1.0000
  H   H34       1.0  0.52130  0.64944  0.20023  1.0000
  O   O17       1.0  0.55493  0.62837  0.09296  1.0000
  O   O18       1.0  0.59960  0.59945  0.09287  1.0000
  C   C107      1.0  0.37115  0.42731  0.34290  1.0000
  C   C108      1.0  0.41612  0.39507  0.33862  1.0000
  C   C109      1.0  0.40480  0.40356  0.25594  1.0000
  C   C110      1.0  0.38224  0.41983  0.25953  1.0000
  H   H35       1.0  0.37435  0.42717  0.20118  1.0000
  C   C111      1.0  0.43943  0.37994  0.33840  1.0000
  C   C112      1.0  0.48717  0.35198  0.34183  1.0000
  C   C113      1.0  0.47575  0.35914  0.25867  1.0000
  C   C114      1.0  0.45171  0.37313  0.25551  1.0000
  C   C115      1.0  0.44012  0.38129  0.17347  1.0000
  C   C116      1.0  0.41688  0.39637  0.17368  1.0000
  H   H36       1.0  0.48557  0.35491  0.20015  1.0000
  O   O19       1.0  0.45137  0.37529  0.09328  1.0000
  O   O20       1.0  0.40673  0.40426  0.09369  1.0000
  C   C117      1.0  0.11730  0.42373  0.34366  1.0000
  N   N17       1.0  0.09835  0.44263  0.34236  1.0000
  C   C118      1.0  0.07239  0.43595  0.34349  1.0000
  N   N18       1.0  0.06553  0.40996  0.34460  1.0000
  C   C119      1.0  0.08423  0.39081  0.34505  1.0000
  N   N19       1.0  0.11002  0.39791  0.34483  1.0000
  C   C120      1.0  0.89002  0.58601  0.34422  1.0000
  N   N20       1.0  0.90903  0.56716  0.34348  1.0000
  C   C121      1.0  0.93498  0.57389  0.34439  1.0000
  N   N21       1.0  0.94178  0.59990  0.34488  1.0000
  C   C122      1.0  0.92304  0.61902  0.34490  1.0000
  N   N22       1.0  0.89725  0.61186  0.34468  1.0000
  C   C123      1.0  0.58452  0.11695  0.34374  1.0000
  N   N23       1.0  0.56567  0.09782  0.34275  1.0000
  C   C124      1.0  0.57231  0.07182  0.34382  1.0000
  N   N24       1.0  0.59821  0.06509  0.34464  1.0000
  C   C125      1.0  0.61733  0.08395  0.34480  1.0000
  N   N25       1.0  0.61026  0.10979  0.34453  1.0000
  C   C126      1.0  0.42218  0.88833  0.34443  1.0000
  N   N26       1.0  0.44111  0.90738  0.34354  1.0000
  C   C127      1.0  0.43456  0.93341  0.34434  1.0000
  N   N27       1.0  0.40869  0.94024  0.34479  1.0000
  C   C128      1.0  0.38951  0.92145  0.34505  1.0000
  N   N28       1.0  0.39646  0.89557  0.34500  1.0000
  C   C129      1.0  0.01243  0.16534  0.34304  1.0000
  N   N29       1.0  0.01802  0.19160  0.34343  1.0000
  C   C130      1.0  0.04344  0.20016  0.34283  1.0000
  N   N30       1.0  0.06330  0.18219  0.34346  1.0000
  C   C131      1.0  0.05787  0.15590  0.34307  1.0000
  N   N31       1.0  0.03245  0.14774  0.34364  1.0000
  C   C132      1.0  0.99577  0.84422  0.34350  1.0000
  N   N32       1.0  0.99007  0.81800  0.34368  1.0000
  C   C133      1.0  0.96461  0.80956  0.34257  1.0000
  N   N33       1.0  0.94483  0.82763  0.34294  1.0000
  C   C134      1.0  0.95039  0.85390  0.34281  1.0000
  N   N34       1.0  0.97584  0.86192  0.34389  1.0000
  C   C135      1.0  0.84270  0.01378  0.34308  1.0000
  N   N35       1.0  0.81642  0.01876  0.34325  1.0000
  C   C136      1.0  0.80744  0.04406  0.34243  1.0000
  N   N36       1.0  0.82502  0.06441  0.34308  1.0000
  C   C137      1.0  0.85131  0.05959  0.34290  1.0000
  N   N37       1.0  0.85986  0.03429  0.34372  1.0000
  C   C138      1.0  0.16555  0.99621  0.34183  1.0000
  N   N38       1.0  0.19176  0.99093  0.34236  1.0000
  C   C139      1.0  0.20043  0.96552  0.34214  1.0000
  N   N39       1.0  0.18263  0.94539  0.34312  1.0000
  C   C140      1.0  0.15641  0.95051  0.34251  1.0000
  N   N40       1.0  0.14813  0.97590  0.34266  1.0000
  C   C141      1.0  0.49462  0.66324  0.34548  1.0000
  N   N41       1.0  0.48923  0.68951  0.34513  1.0000
  C   C142      1.0  0.46386  0.69809  0.34551  1.0000
  N   N42       1.0  0.44387  0.68014  0.34463  1.0000
  C   C143      1.0  0.44911  0.65385  0.34499  1.0000
  N   N43       1.0  0.47447  0.64567  0.34463  1.0000
  C   C144      1.0  0.51301  0.34221  0.34508  1.0000
  N   N44       1.0  0.51852  0.31597  0.34472  1.0000
  C   C145      1.0  0.54392  0.30749  0.34550  1.0000
  N   N45       1.0  0.56383  0.32554  0.34502  1.0000
  C   C146      1.0  0.55848  0.35182  0.34534  1.0000
  N   N46       1.0  0.53309  0.35988  0.34462  1.0000
  C   C147      1.0  0.66535  0.51279  0.34502  1.0000
  N   N47       1.0  0.69153  0.51841  0.34486  1.0000
  C   C148      1.0  0.70007  0.54393  0.34567  1.0000
  N   N48       1.0  0.68212  0.56384  0.34502  1.0000
  C   C149      1.0  0.65592  0.55837  0.34519  1.0000
  N   N49       1.0  0.64782  0.53287  0.34439  1.0000
  C   C150      1.0  0.34277  0.49280  0.34592  1.0000
  N   N50       1.0  0.31658  0.48737  0.34518  1.0000
  C   C151      1.0  0.30789  0.46192  0.34598  1.0000
  N   N51       1.0  0.32568  0.44187  0.34576  1.0000
  C   C152      1.0  0.35193  0.44717  0.34643  1.0000
  N   N52       1.0  0.36020  0.47262  0.34579  1.0000
  C   C153      1.0  0.04183  0.46594  0.42103  1.0000
  N   N53       1.0  0.02302  0.48490  0.41703  1.0000
  C   C154      1.0  0.96497  0.54324  0.42158  1.0000
  H   H37       1.0  0.04785  0.45932  0.48276  1.0000
  N   N54       1.0  0.98385  0.52435  0.41731  1.0000
  H   H38       1.0  0.95848  0.54932  0.48340  1.0000
  C   C155      1.0  0.54216  0.04122  0.42128  1.0000
  N   N55       1.0  0.52325  0.02223  0.41720  1.0000
  C   C156      1.0  0.46501  0.96374  0.42161  1.0000
  H   H39       1.0  0.54859  0.04744  0.48305  1.0000
  N   N56       1.0  0.48389  0.98274  0.41737  1.0000
  H   H40       1.0  0.45877  0.95736  0.48342  1.0000
  C   C157      1.0  0.04911  0.22739  0.34588  1.0000
  C   C158      1.0  0.06028  0.28194  0.34964  1.0000
  C   C159      1.0  0.05776  0.26796  0.43237  1.0000
  C   C160      1.0  0.05215  0.24057  0.42905  1.0000
  H   H41       1.0  0.05023  0.23004  0.48763  1.0000
  C   C161      1.0  0.06589  0.30933  0.34992  1.0000
  C   C162      1.0  0.07731  0.36385  0.34739  1.0000
  C   C163      1.0  0.07489  0.35037  0.43022  1.0000
  C   C164      1.0  0.06910  0.32301  0.43294  1.0000
  C   C165      1.0  0.06657  0.30897  0.51490  1.0000
  C   C166      1.0  0.06094  0.28172  0.51462  1.0000
  H   H42       1.0  0.07754  0.36063  0.48903  1.0000
  O   O21       1.0  0.06950  0.32137  0.59520  1.0000
  O   O22       1.0  0.05867  0.26906  0.59468  1.0000
  C   C167      1.0  0.95884  0.78234  0.34561  1.0000
  C   C168      1.0  0.94754  0.72781  0.34933  1.0000
  C   C169      1.0  0.95090  0.74162  0.43206  1.0000
  C   C170      1.0  0.95661  0.76899  0.42876  1.0000
  H   H43       1.0  0.95914  0.77939  0.48733  1.0000
  C   C171      1.0  0.94179  0.70045  0.34961  1.0000
  C   C172      1.0  0.92999  0.64599  0.34708  1.0000
  C   C173      1.0  0.93335  0.65928  0.42990  1.0000
  C   C174      1.0  0.93930  0.68661  0.43262  1.0000
  C   C175      1.0  0.94265  0.70048  0.51457  1.0000
  C   C176      1.0  0.94842  0.72771  0.51430  1.0000
  H   H44       1.0  0.93123  0.64891  0.48873  1.0000
  O   O23       1.0  0.94034  0.68796  0.59488  1.0000
  O   O24       1.0  0.95142  0.74022  0.59436  1.0000
  C   C177      1.0  0.78019  0.04918  0.34544  1.0000
  C   C178      1.0  0.72577  0.05998  0.34914  1.0000
  C   C179      1.0  0.73959  0.05692  0.43187  1.0000
  C   C180      1.0  0.76690  0.05149  0.42858  1.0000
  H   H45       1.0  0.77731  0.04926  0.48718  1.0000
  C   C181      1.0  0.69849  0.06555  0.34942  1.0000
  C   C182      1.0  0.64419  0.07708  0.34697  1.0000
  C   C183      1.0  0.65749  0.07395  0.42977  1.0000
  C   C184      1.0  0.68473  0.06814  0.43244  1.0000
  C   C185      1.0  0.69860  0.06504  0.51439  1.0000
  C   C186      1.0  0.72575  0.05948  0.51411  1.0000
  H   H46       1.0  0.64720  0.07616  0.48862  1.0000
  O   O25       1.0  0.68615  0.06743  0.59472  1.0000
  O   O26       1.0  0.73826  0.05674  0.59419  1.0000
  C   C187      1.0  0.22757  0.95996  0.34536  1.0000
  C   C188      1.0  0.28163  0.94766  0.34932  1.0000
  C   C189      1.0  0.26765  0.95010  0.43198  1.0000
  C   C190      1.0  0.24050  0.95624  0.42855  1.0000
  H   H47       1.0  0.22995  0.95797  0.48705  1.0000
  C   C191      1.0  0.30874  0.94134  0.34969  1.0000
  C   C192      1.0  0.36271  0.92852  0.34729  1.0000
  C   C193      1.0  0.34925  0.93094  0.43006  1.0000
  C   C194      1.0  0.32217  0.93741  0.43272  1.0000
  C   C195      1.0  0.30816  0.93997  0.51461  1.0000
  C   C196      1.0  0.28117  0.94625  0.51424  1.0000
  H   H48       1.0  0.35934  0.92785  0.48887  1.0000
  O   O27       1.0  0.32032  0.93641  0.59493  1.0000
  O   O28       1.0  0.26851  0.94848  0.59424  1.0000
  C   C197      1.0  0.45555  0.74018  0.42228  1.0000
  N   N57       1.0  0.44994  0.76633  0.41780  1.0000
  C   C198      1.0  0.43244  0.84671  0.42171  1.0000
  H   H49       1.0  0.45767  0.73156  0.48416  1.0000
  N   N58       1.0  0.43815  0.82058  0.41751  1.0000
  H   H50       1.0  0.43063  0.85546  0.48349  1.0000
  C   C199      1.0  0.55300  0.26553  0.42223  1.0000
  N   N59       1.0  0.55831  0.23931  0.41772  1.0000
  C   C200      1.0  0.57521  0.15875  0.42130  1.0000
  H   H51       1.0  0.55155  0.27428  0.48411  1.0000
  N   N60       1.0  0.56963  0.18492  0.41725  1.0000
  H   H52       1.0  0.57765  0.15012  0.48302  1.0000
  C   C201      1.0  0.74198  0.55291  0.42244  1.0000
  N   N61       1.0  0.76809  0.55853  0.41796  1.0000
  C   C202      1.0  0.84841  0.57607  0.42168  1.0000
  H   H53       1.0  0.73332  0.55107  0.48433  1.0000
  N   N62       1.0  0.82231  0.57034  0.41758  1.0000
  H   H54       1.0  0.85707  0.57822  0.48344  1.0000
  C   C203      1.0  0.26596  0.45305  0.42249  1.0000
  N   N63       1.0  0.23972  0.44815  0.41786  1.0000
  C   C204      1.0  0.15911  0.43250  0.42126  1.0000
  H   H55       1.0  0.27471  0.45428  0.48440  1.0000
  N   N64       1.0  0.18531  0.43768  0.41724  1.0000
  H   H56       1.0  0.15049  0.42998  0.48294  1.0000
  C   C205      1.0  0.07766  0.13660  0.34645  1.0000
  C   C206      1.0  0.11069  0.09213  0.35003  1.0000
  C   C207      1.0  0.10166  0.10296  0.43285  1.0000
  C   C208      1.0  0.08498  0.12526  0.42959  1.0000
  H   H57       1.0  0.07740  0.13286  0.48802  1.0000
  C   C209      1.0  0.12634  0.06913  0.34985  1.0000
  C   C210      1.0  0.15546  0.02199  0.34558  1.0000
  C   C211      1.0  0.14772  0.03295  0.42890  1.0000
  C   C212      1.0  0.13315  0.05668  0.43250  1.0000
  C   C213      1.0  0.12445  0.06778  0.51469  1.0000
  C   C214      1.0  0.10884  0.09072  0.51486  1.0000
  H   H58       1.0  0.15191  0.02296  0.48717  1.0000
  O   O29       1.0  0.13044  0.05636  0.59464  1.0000
  O   O30       1.0  0.10048  0.10041  0.59497  1.0000
  C   C215      1.0  0.93074  0.87333  0.34678  1.0000
  C   C216      1.0  0.89801  0.91804  0.35082  1.0000
  C   C217      1.0  0.90753  0.90748  0.43340  1.0000
  C   C218      1.0  0.92405  0.88509  0.42989  1.0000
  H   H59       1.0  0.93198  0.87768  0.48806  1.0000
  C   C219      1.0  0.88240  0.94108  0.35087  1.0000
  C   C220      1.0  0.85308  0.98812  0.34704  1.0000
  C   C221      1.0  0.86150  0.97751  0.43010  1.0000
  C   C222      1.0  0.87613  0.95382  0.43351  1.0000
  C   C223      1.0  0.88536  0.94302  0.51548  1.0000
  C   C224      1.0  0.90092  0.92005  0.51542  1.0000
  H   H60       1.0  0.85763  0.98767  0.48830  1.0000
  O   O31       1.0  0.87986  0.95470  0.59540  1.0000
  O   O32       1.0  0.90974  0.91060  0.59529  1.0000
  C   C225      1.0  0.87033  0.07977  0.34641  1.0000
  C   C226      1.0  0.91531  0.11231  0.35040  1.0000
  C   C227      1.0  0.90410  0.10365  0.43314  1.0000
  C   C228      1.0  0.88156  0.08721  0.42967  1.0000
  H   H61       1.0  0.87378  0.07973  0.48806  1.0000
  C   C229      1.0  0.93867  0.12751  0.35042  1.0000
  C   C230      1.0  0.98655  0.15554  0.34654  1.0000
  C   C231      1.0  0.97520  0.14829  0.42979  1.0000
  C   C232      1.0  0.95110  0.13426  0.43319  1.0000
  C   C233      1.0  0.93959  0.12599  0.51532  1.0000
  C   C234      1.0  0.91631  0.11082  0.51530  1.0000
  H   H62       1.0  0.98513  0.15244  0.48821  1.0000
  O   O33       1.0  0.95098  0.13193  0.59540  1.0000
  O   O34       1.0  0.90626  0.10278  0.59535  1.0000
  C   C235      1.0  0.13727  0.93048  0.34610  1.0000
  C   C236      1.0  0.09261  0.89759  0.35037  1.0000
  C   C237      1.0  0.10389  0.90618  0.43307  1.0000
  C   C238      1.0  0.12632  0.92277  0.42950  1.0000
  H   H63       1.0  0.13419  0.93018  0.48785  1.0000
  C   C239      1.0  0.06938  0.88221  0.35052  1.0000
  C   C240      1.0  0.02167  0.85395  0.34688  1.0000
  C   C241      1.0  0.03310  0.86108  0.43012  1.0000
  C   C242      1.0  0.05713  0.87523  0.43338  1.0000
  C   C243      1.0  0.06871  0.88343  0.51547  1.0000
  C   C244      1.0  0.09189  0.89877  0.51532  1.0000
  H   H64       1.0  0.02326  0.85678  0.48859  1.0000
  O   O35       1.0  0.05750  0.87728  0.59564  1.0000
  O   O36       1.0  0.10201  0.90674  0.59533  1.0000
  C   C245      1.0  0.42008  0.62253  0.42151  1.0000
  N   N65       1.0  0.40437  0.60089  0.41695  1.0000
  C   C246      1.0  0.36022  0.53186  0.42204  1.0000
  H   H65       1.0  0.42588  0.62925  0.48341  1.0000
  N   N66       1.0  0.37395  0.55481  0.41723  1.0000
  H   H66       1.0  0.35638  0.52390  0.48402  1.0000
  C   C247      1.0  0.58790  0.38299  0.42126  1.0000
  N   N67       1.0  0.60360  0.40465  0.41654  1.0000
  C   C248      1.0  0.64826  0.47351  0.42103  1.0000
  H   H67       1.0  0.58242  0.37607  0.48325  1.0000
  N   N68       1.0  0.63431  0.45068  0.41643  1.0000
  H   H68       1.0  0.65251  0.48127  0.48299  1.0000
  C   C249      1.0  0.62483  0.58765  0.42111  1.0000
  N   N69       1.0  0.60305  0.60299  0.41648  1.0000
  C   C250      1.0  0.53390  0.64653  0.42130  1.0000
  H   H69       1.0  0.63188  0.58238  0.48310  1.0000
  N   N70       1.0  0.55681  0.63293  0.41657  1.0000
  H   H70       1.0  0.52626  0.65085  0.48330  1.0000
  C   C251      1.0  0.38322  0.41821  0.42250  1.0000
  N   N71       1.0  0.40491  0.40275  0.41764  1.0000
  C   C252      1.0  0.47402  0.35924  0.42166  1.0000
  H   H71       1.0  0.37657  0.42395  0.48449  1.0000
  N   N72       1.0  0.45107  0.37276  0.41721  1.0000
  H   H72       1.0  0.48199  0.35536  0.48353  1.0000
