data_image0
_chemical_formula_structural       C4HOCHNC2H2CNOC3OHC4HOCHNC2H2CNOC3OHC4HOC3OCHNCHC3H2C2H2C3HCNC2NC2OHC4HOC3OCHNCHC3H2C2H2C3HCNC2NC2OHN2C4HC3NCH2C2HC3NC2OHC4HC3NCH2C2HC3NC2OHC4OHCOHONCHNCHC2H3CH2C2NC2OHC2NC2OHC4OHCOHONCHNCHC2H3CH2C2NC2OHC2NC2OHC4HOC4OHC4HOC4OHC4HOC4OHNCHNCHNCHNCHNCHNCHC4H4C4H4C4H4C2NC2OHC2NC2OHC2NC2OHC2NC2OHC2NC2OHC2NC2OHC4HOC4OHC4HOC4OHC4HOC4OHNCHNCHNCHNCHNCHNCHC4H4C4H4C4H4C2NC2OHC2NC2OHC2NC2OHC2NC2OHC2NC2OHC2NC2OH
_chemical_formula_sum              "C264 H120 O48 N48"
_cell_length_a       46.4476
_cell_length_b       46.4476
_cell_length_c       14.8067
_cell_angle_alpha    90
_cell_angle_beta     90
_cell_angle_gamma    120

_space_group_name_H-M_alt    "P 1"
_space_group_IT_number       1

loop_
  _space_group_symop_operation_xyz
  'x, y, z'

loop_
  _atom_site_type_symbol
  _atom_site_label
  _atom_site_symmetry_multiplicity
  _atom_site_fract_x
  _atom_site_fract_y
  _atom_site_fract_z
  _atom_site_occupancy
  C   C1        1.0  0.02781  0.26546  0.34706  1.0000
  C   C2        1.0  0.04720  0.30107  0.34812  1.0000
  C   C3        1.0  0.08236  0.31907  0.34642  1.0000
  C   C4        1.0  0.09959  0.30120  0.34563  1.0000
  H   H1        1.0  0.03615  0.31522  0.35005  1.0000
  O   O1        1.0  0.13353  0.31811  0.34724  1.0000
  C   C5        1.0  0.11871  0.25198  0.26159  1.0000
  H   H2        1.0  0.11243  0.25788  0.20096  1.0000
  N   N1        1.0  0.11792  0.36768  0.26753  1.0000
  C   C6        1.0  0.08220  0.26610  0.34367  1.0000
  C   C7        1.0  0.04704  0.24908  0.34500  1.0000
  H   H3        1.0  0.13972  0.32071  0.41149  1.0000
  H   H4        1.0  0.03584  0.22387  0.34283  1.0000
  C   C8        1.0  0.10067  0.24944  0.34090  1.0000
  N   N2        1.0  0.11526  0.24822  0.41942  1.0000
  O   O2        1.0  0.13845  0.24187  0.57910  1.0000
  C   C9        1.0  0.10111  0.35427  0.34579  1.0000
  C   C10       1.0  0.11621  0.37246  0.42626  1.0000
  C   C11       1.0  0.10497  0.35991  0.51224  1.0000
  O   O3        1.0  0.11742  0.37798  0.57776  1.0000
  H   H5        1.0  0.08095  0.34350  0.51829  1.0000
  C   C12       1.0  0.02781  0.76546  0.34706  1.0000
  C   C13       1.0  0.04720  0.80107  0.34812  1.0000
  C   C14       1.0  0.08236  0.81907  0.34642  1.0000
  C   C15       1.0  0.09959  0.80120  0.34563  1.0000
  H   H6        1.0  0.03615  0.81522  0.35005  1.0000
  O   O4        1.0  0.13353  0.81811  0.34724  1.0000
  C   C16       1.0  0.11871  0.75198  0.26159  1.0000
  H   H7        1.0  0.11242  0.75788  0.20096  1.0000
  N   N3        1.0  0.11792  0.86768  0.26753  1.0000
  C   C17       1.0  0.08220  0.76610  0.34367  1.0000
  C   C18       1.0  0.04704  0.74909  0.34500  1.0000
  H   H8        1.0  0.13972  0.82071  0.41149  1.0000
  H   H9        1.0  0.03584  0.72388  0.34283  1.0000
  C   C19       1.0  0.10067  0.74944  0.34090  1.0000
  N   N4        1.0  0.11526  0.74821  0.41942  1.0000
  O   O5        1.0  0.13845  0.74187  0.57910  1.0000
  C   C20       1.0  0.10110  0.85427  0.34579  1.0000
  C   C21       1.0  0.11621  0.87246  0.42626  1.0000
  C   C22       1.0  0.10497  0.85991  0.51224  1.0000
  O   O6        1.0  0.11742  0.87798  0.57776  1.0000
  H   H10       1.0  0.08095  0.84349  0.51829  1.0000
  C   C23       1.0  0.25078  0.26555  0.34715  1.0000
  C   C24       1.0  0.21518  0.24933  0.34859  1.0000
  C   C25       1.0  0.19716  0.26648  0.34679  1.0000
  C   C26       1.0  0.21502  0.30158  0.34610  1.0000
  H   H11       1.0  0.20105  0.22413  0.35077  1.0000
  O   O7        1.0  0.19812  0.31861  0.34792  1.0000
  C   C27       1.0  0.25066  0.48851  0.34692  1.0000
  C   C28       1.0  0.24969  0.43396  0.34572  1.0000
  C   C29       1.0  0.21460  0.41674  0.34420  1.0000
  O   O8        1.0  0.19754  0.38279  0.34527  1.0000
  C   C30       1.0  0.25261  0.04399  0.34865  1.0000
  H   H12       1.0  0.22741  0.03293  0.35085  1.0000
  N   N5        1.0  0.14869  0.25380  0.26867  1.0000
  C   C31       1.0  0.14605  0.39768  0.26019  1.0000
  H   H13       1.0  0.15804  0.40418  0.19931  1.0000
  C   C32       1.0  0.25536  0.14309  0.26124  1.0000
  C   C33       1.0  0.25012  0.31929  0.34388  1.0000
  C   C34       1.0  0.25240  0.21185  0.34479  1.0000
  H   H14       1.0  0.19549  0.32213  0.41221  1.0000
  H   H15       1.0  0.22719  0.19782  0.34262  1.0000
  C   C35       1.0  0.19690  0.43414  0.34264  1.0000
  C   C36       1.0  0.21505  0.46930  0.34432  1.0000
  H   H16       1.0  0.19399  0.37646  0.40943  1.0000
  H   H17       1.0  0.20105  0.48051  0.34203  1.0000
  C   C37       1.0  0.16194  0.24996  0.34671  1.0000
  C   C38       1.0  0.14375  0.24663  0.42721  1.0000
  C   C39       1.0  0.15621  0.24747  0.51287  1.0000
  H   H18       1.0  0.17296  0.24029  0.51921  1.0000
  C   C40       1.0  0.16177  0.41570  0.33920  1.0000
  N   N6        1.0  0.14625  0.40099  0.41798  1.0000
  C   C41       1.0  0.25326  0.09784  0.34690  1.0000
  C   C42       1.0  0.25278  0.15859  0.34040  1.0000
  N   N7        1.0  0.25152  0.14292  0.41917  1.0000
  C   C43       1.0  0.24994  0.11285  0.42714  1.0000
  C   C44       1.0  0.25075  0.10129  0.51289  1.0000
  O   O9        1.0  0.24511  0.11347  0.57901  1.0000
  H   H19       1.0  0.24361  0.07737  0.51938  1.0000
  C   C45       1.0  0.25078  0.76555  0.34715  1.0000
  C   C46       1.0  0.21518  0.74933  0.34859  1.0000
  C   C47       1.0  0.19716  0.76648  0.34679  1.0000
  C   C48       1.0  0.21502  0.80157  0.34610  1.0000
  H   H20       1.0  0.20105  0.72413  0.35077  1.0000
  O   O10       1.0  0.19812  0.81861  0.34792  1.0000
  C   C49       1.0  0.25066  0.98851  0.34692  1.0000
  C   C50       1.0  0.24969  0.93396  0.34572  1.0000
  C   C51       1.0  0.21460  0.91674  0.34420  1.0000
  O   O11       1.0  0.19754  0.88279  0.34527  1.0000
  C   C52       1.0  0.25260  0.54399  0.34865  1.0000
  H   H21       1.0  0.22741  0.53293  0.35085  1.0000
  N   N8        1.0  0.14869  0.75380  0.26867  1.0000
  C   C53       1.0  0.14604  0.89768  0.26019  1.0000
  H   H22       1.0  0.15804  0.90418  0.19931  1.0000
  C   C54       1.0  0.25536  0.64309  0.26124  1.0000
  C   C55       1.0  0.25012  0.81929  0.34388  1.0000
  C   C56       1.0  0.25240  0.71185  0.34479  1.0000
  H   H23       1.0  0.19549  0.82213  0.41221  1.0000
  H   H24       1.0  0.22719  0.69782  0.34262  1.0000
  C   C57       1.0  0.19690  0.93414  0.34264  1.0000
  C   C58       1.0  0.21505  0.96930  0.34432  1.0000
  H   H25       1.0  0.19400  0.87646  0.40943  1.0000
  H   H26       1.0  0.20105  0.98050  0.34203  1.0000
  C   C59       1.0  0.16195  0.74996  0.34671  1.0000
  C   C60       1.0  0.14375  0.74663  0.42721  1.0000
  C   C61       1.0  0.15621  0.74747  0.51287  1.0000
  H   H27       1.0  0.17296  0.74029  0.51921  1.0000
  C   C62       1.0  0.16177  0.91570  0.33920  1.0000
  N   N9        1.0  0.14624  0.90099  0.41798  1.0000
  C   C63       1.0  0.25326  0.59784  0.34690  1.0000
  C   C64       1.0  0.25278  0.65859  0.34040  1.0000
  N   N10       1.0  0.25151  0.64292  0.41917  1.0000
  C   C65       1.0  0.24994  0.61285  0.42714  1.0000
  C   C66       1.0  0.25076  0.60129  0.51289  1.0000
  O   O12       1.0  0.24511  0.61347  0.57901  1.0000
  H   H28       1.0  0.24361  0.57737  0.51938  1.0000
  N   N11       1.0  0.25716  0.11493  0.26875  1.0000
  N   N12       1.0  0.25716  0.61493  0.26875  1.0000
  C   C67       1.0  0.26876  0.24745  0.34704  1.0000
  C   C68       1.0  0.30454  0.21146  0.34523  1.0000
  C   C69       1.0  0.30436  0.26369  0.34821  1.0000
  C   C70       1.0  0.26686  0.46911  0.34829  1.0000
  H   H29       1.0  0.29205  0.48016  0.35102  1.0000
  C   C71       1.0  0.26881  0.02459  0.34715  1.0000
  C   C72       1.0  0.30487  0.09637  0.34639  1.0000
  C   C73       1.0  0.26977  0.07915  0.34696  1.0000
  N   N13       1.0  0.26259  0.39809  0.26781  1.0000
  C   C74       1.0  0.26440  0.36992  0.26125  1.0000
  H   H30       1.0  0.25886  0.35777  0.20060  1.0000
  H   H31       1.0  0.26133  0.15525  0.20058  1.0000
  C   C75       1.0  0.26714  0.30116  0.34473  1.0000
  C   C76       1.0  0.26944  0.19373  0.34332  1.0000
  H   H32       1.0  0.29235  0.31518  0.34223  1.0000
  C   C77       1.0  0.30441  0.04381  0.34473  1.0000
  C   C78       1.0  0.26613  0.41520  0.34560  1.0000
  C   C79       1.0  0.26677  0.35440  0.34070  1.0000
  N   N14       1.0  0.26777  0.37029  0.41891  1.0000
  C   C80       1.0  0.26936  0.40038  0.42645  1.0000
  C   C81       1.0  0.26827  0.41197  0.51208  1.0000
  O   O13       1.0  0.27558  0.40064  0.57707  1.0000
  H   H33       1.0  0.27507  0.43579  0.51810  1.0000
  C   C82       1.0  0.26876  0.74745  0.34704  1.0000
  C   C83       1.0  0.30454  0.71146  0.34523  1.0000
  C   C84       1.0  0.30436  0.76369  0.34821  1.0000
  C   C85       1.0  0.26686  0.96911  0.34829  1.0000
  H   H34       1.0  0.29205  0.98016  0.35102  1.0000
  C   C86       1.0  0.26881  0.52459  0.34715  1.0000
  C   C87       1.0  0.30487  0.59637  0.34639  1.0000
  C   C88       1.0  0.26977  0.57915  0.34696  1.0000
  N   N15       1.0  0.26259  0.89809  0.26781  1.0000
  C   C89       1.0  0.26440  0.86992  0.26125  1.0000
  H   H35       1.0  0.25886  0.85777  0.20060  1.0000
  H   H36       1.0  0.26133  0.65525  0.20058  1.0000
  C   C90       1.0  0.26714  0.80116  0.34473  1.0000
  C   C91       1.0  0.26944  0.69373  0.34332  1.0000
  H   H37       1.0  0.29235  0.81518  0.34223  1.0000
  C   C92       1.0  0.30441  0.54381  0.34473  1.0000
  C   C93       1.0  0.26613  0.91520  0.34560  1.0000
  C   C94       1.0  0.26677  0.85440  0.34070  1.0000
  N   N16       1.0  0.26777  0.87029  0.41891  1.0000
  C   C95       1.0  0.26937  0.90038  0.42645  1.0000
  C   C96       1.0  0.26828  0.91197  0.51208  1.0000
  O   O14       1.0  0.27558  0.90064  0.57707  1.0000
  H   H38       1.0  0.27508  0.93579  0.51810  1.0000
  C   C97       1.0  0.49173  0.24750  0.34688  1.0000
  C   C98       1.0  0.41995  0.21178  0.34406  1.0000
  C   C99       1.0  0.43716  0.19390  0.34558  1.0000
  C   C100      1.0  0.47232  0.21190  0.34819  1.0000
  O   O15       1.0  0.38600  0.19490  0.34532  1.0000
  H   H39       1.0  0.48337  0.19776  0.35079  1.0000
  C   C101      1.0  0.32239  0.24656  0.34607  1.0000
  O   O16       1.0  0.32146  0.19445  0.34696  1.0000
  H   H40       1.0  0.31848  0.28889  0.35050  1.0000
  O   O17       1.0  0.32192  0.13031  0.34834  1.0000
  N   N17       1.0  0.37079  0.25928  0.26779  1.0000
  C   C102      1.0  0.40077  0.26114  0.26015  1.0000
  H   H41       1.0  0.40692  0.25511  0.19954  1.0000
  N   N18       1.0  0.40129  0.14523  0.26774  1.0000
  C   C103      1.0  0.37309  0.11525  0.26114  1.0000
  H   H42       1.0  0.36088  0.10865  0.20058  1.0000
  C   C104      1.0  0.47251  0.26389  0.34430  1.0000
  C   C105      1.0  0.43735  0.24688  0.34244  1.0000
  H   H43       1.0  0.37973  0.19222  0.40951  1.0000
  H   H44       1.0  0.48371  0.28910  0.34221  1.0000
  H   H45       1.0  0.32408  0.19090  0.41122  1.0000
  C   C106      1.0  0.32257  0.07898  0.34402  1.0000
  H   H46       1.0  0.32539  0.13642  0.41265  1.0000
  H   H47       1.0  0.31841  0.03261  0.34200  1.0000
  C   C107      1.0  0.35759  0.26311  0.34598  1.0000
  C   C108      1.0  0.41893  0.26357  0.33906  1.0000
  N   N19       1.0  0.40437  0.26472  0.41780  1.0000
  C   C109      1.0  0.37593  0.26637  0.42614  1.0000
  C   C110      1.0  0.36355  0.26529  0.51203  1.0000
  O   O18       1.0  0.38143  0.27093  0.57801  1.0000
  H   H48       1.0  0.34667  0.27228  0.51889  1.0000
  C   C111      1.0  0.41839  0.15868  0.34561  1.0000
  C   C112      1.0  0.35771  0.09744  0.34075  1.0000
  N   N20       1.0  0.37352  0.11217  0.41913  1.0000
  C   C113      1.0  0.40363  0.14067  0.42653  1.0000
  C   C114      1.0  0.41530  0.15335  0.51209  1.0000
  O   O19       1.0  0.40404  0.13473  0.57711  1.0000
  H   H49       1.0  0.43912  0.17038  0.51796  1.0000
  C   C115      1.0  0.49173  0.74750  0.34688  1.0000
  C   C116      1.0  0.41995  0.71178  0.34406  1.0000
  C   C117      1.0  0.43716  0.69390  0.34558  1.0000
  C   C118      1.0  0.47232  0.71190  0.34819  1.0000
  O   O20       1.0  0.38600  0.69490  0.34532  1.0000
  H   H50       1.0  0.48337  0.69776  0.35079  1.0000
  C   C119      1.0  0.32239  0.74656  0.34607  1.0000
  O   O21       1.0  0.32146  0.69444  0.34696  1.0000
  H   H51       1.0  0.31848  0.78889  0.35050  1.0000
  O   O22       1.0  0.32192  0.63031  0.34834  1.0000
  N   N21       1.0  0.37079  0.75928  0.26779  1.0000
  C   C120      1.0  0.40077  0.76114  0.26015  1.0000
  H   H52       1.0  0.40692  0.75511  0.19954  1.0000
  N   N22       1.0  0.40129  0.64523  0.26774  1.0000
  C   C121      1.0  0.37309  0.61525  0.26114  1.0000
  H   H53       1.0  0.36088  0.60865  0.20058  1.0000
  C   C122      1.0  0.47251  0.76389  0.34430  1.0000
  C   C123      1.0  0.43736  0.74689  0.34244  1.0000
  H   H54       1.0  0.37973  0.69222  0.40951  1.0000
  H   H55       1.0  0.48371  0.78910  0.34221  1.0000
  H   H56       1.0  0.32409  0.69090  0.41122  1.0000
  C   C124      1.0  0.32257  0.57898  0.34402  1.0000
  H   H57       1.0  0.32539  0.63642  0.41265  1.0000
  H   H58       1.0  0.31841  0.53261  0.34200  1.0000
  C   C125      1.0  0.35759  0.76311  0.34598  1.0000
  C   C126      1.0  0.41893  0.76357  0.33906  1.0000
  N   N23       1.0  0.40437  0.76472  0.41780  1.0000
  C   C127      1.0  0.37593  0.76637  0.42614  1.0000
  C   C128      1.0  0.36355  0.76529  0.51203  1.0000
  O   O23       1.0  0.38143  0.77093  0.57801  1.0000
  H   H59       1.0  0.34667  0.77228  0.51889  1.0000
  C   C129      1.0  0.41839  0.65868  0.34561  1.0000
  C   C130      1.0  0.35771  0.59744  0.34075  1.0000
  N   N24       1.0  0.37352  0.61217  0.41913  1.0000
  C   C131      1.0  0.40363  0.64067  0.42653  1.0000
  C   C132      1.0  0.41530  0.65335  0.51209  1.0000
  O   O24       1.0  0.40404  0.63473  0.57711  1.0000
  H   H60       1.0  0.43912  0.67038  0.51796  1.0000
  C   C133      1.0  0.52781  0.26546  0.34706  1.0000
  C   C134      1.0  0.54720  0.30107  0.34812  1.0000
  C   C135      1.0  0.58236  0.31907  0.34642  1.0000
  C   C136      1.0  0.59959  0.30120  0.34563  1.0000
  H   H61       1.0  0.53615  0.31522  0.35005  1.0000
  O   O25       1.0  0.63353  0.31811  0.34724  1.0000
  C   C137      1.0  0.99173  0.24750  0.34688  1.0000
  C   C138      1.0  0.91995  0.21178  0.34406  1.0000
  C   C139      1.0  0.93716  0.19390  0.34558  1.0000
  C   C140      1.0  0.97232  0.21190  0.34819  1.0000
  O   O26       1.0  0.88600  0.19490  0.34532  1.0000
  H   H62       1.0  0.98337  0.19776  0.35079  1.0000
  C   C141      1.0  0.75078  0.26555  0.34715  1.0000
  C   C142      1.0  0.71517  0.24933  0.34859  1.0000
  C   C143      1.0  0.69716  0.26648  0.34679  1.0000
  C   C144      1.0  0.71502  0.30158  0.34610  1.0000
  H   H63       1.0  0.70105  0.22413  0.35077  1.0000
  O   O27       1.0  0.69812  0.31861  0.34792  1.0000
  C   C145      1.0  0.76875  0.24745  0.34704  1.0000
  C   C146      1.0  0.80454  0.21146  0.34523  1.0000
  C   C147      1.0  0.82238  0.24656  0.34607  1.0000
  C   C148      1.0  0.80436  0.26369  0.34821  1.0000
  O   O28       1.0  0.82146  0.19445  0.34696  1.0000
  H   H64       1.0  0.81848  0.28889  0.35050  1.0000
  C   C149      1.0  0.75066  0.48851  0.34692  1.0000
  C   C150      1.0  0.76686  0.46911  0.34829  1.0000
  C   C151      1.0  0.74969  0.43396  0.34572  1.0000
  C   C152      1.0  0.71460  0.41674  0.34420  1.0000
  H   H65       1.0  0.79205  0.48016  0.35102  1.0000
  O   O29       1.0  0.69754  0.38279  0.34527  1.0000
  C   C153      1.0  0.76881  0.02459  0.34715  1.0000
  C   C154      1.0  0.80487  0.09637  0.34639  1.0000
  C   C155      1.0  0.76977  0.07915  0.34696  1.0000
  C   C156      1.0  0.75260  0.04399  0.34865  1.0000
  O   O30       1.0  0.82192  0.13031  0.34834  1.0000
  H   H66       1.0  0.72741  0.03293  0.35085  1.0000
  N   N25       1.0  0.64869  0.25380  0.26867  1.0000
  C   C157      1.0  0.61871  0.25198  0.26159  1.0000
  H   H67       1.0  0.61243  0.25788  0.20096  1.0000
  N   N26       1.0  0.76259  0.39809  0.26781  1.0000
  C   C158      1.0  0.76440  0.36992  0.26125  1.0000
  H   H68       1.0  0.75886  0.35777  0.20060  1.0000
  N   N27       1.0  0.61792  0.36768  0.26753  1.0000
  C   C159      1.0  0.64604  0.39768  0.26019  1.0000
  H   H69       1.0  0.65804  0.40418  0.19931  1.0000
  N   N28       1.0  0.87078  0.25928  0.26779  1.0000
  C   C160      1.0  0.90077  0.26114  0.26015  1.0000
  H   H70       1.0  0.90692  0.25511  0.19954  1.0000
  N   N29       1.0  0.75716  0.11493  0.26875  1.0000
  C   C161      1.0  0.75536  0.14309  0.26124  1.0000
  H   H71       1.0  0.76133  0.15525  0.20058  1.0000
  N   N30       1.0  0.90129  0.14523  0.26774  1.0000
  C   C162      1.0  0.87309  0.11525  0.26114  1.0000
  H   H72       1.0  0.86088  0.10865  0.20058  1.0000
  C   C163      1.0  0.58220  0.26610  0.34367  1.0000
  C   C164      1.0  0.54704  0.24908  0.34500  1.0000
  C   C165      1.0  0.97251  0.26389  0.34430  1.0000
  C   C166      1.0  0.93736  0.24688  0.34244  1.0000
  H   H73       1.0  0.63972  0.32071  0.41149  1.0000
  H   H74       1.0  0.87973  0.19222  0.40951  1.0000
  H   H75       1.0  0.53584  0.22387  0.34283  1.0000
  H   H76       1.0  0.98371  0.28910  0.34221  1.0000
  C   C167      1.0  0.75011  0.31929  0.34388  1.0000
  C   C168      1.0  0.76714  0.30116  0.34473  1.0000
  C   C169      1.0  0.75240  0.21185  0.34479  1.0000
  C   C170      1.0  0.76944  0.19373  0.34332  1.0000
  H   H77       1.0  0.69549  0.32213  0.41221  1.0000
  H   H78       1.0  0.82408  0.19090  0.41122  1.0000
  H   H79       1.0  0.79234  0.31518  0.34223  1.0000
  H   H80       1.0  0.72719  0.19782  0.34262  1.0000
  C   C171      1.0  0.69690  0.43414  0.34264  1.0000
  C   C172      1.0  0.71505  0.46930  0.34432  1.0000
  C   C173      1.0  0.80441  0.04381  0.34473  1.0000
  C   C174      1.0  0.82257  0.07898  0.34402  1.0000
  H   H81       1.0  0.69399  0.37646  0.40943  1.0000
  H   H82       1.0  0.82539  0.13642  0.41265  1.0000
  H   H83       1.0  0.70105  0.48051  0.34203  1.0000
  H   H84       1.0  0.81841  0.03261  0.34200  1.0000
  C   C175      1.0  0.66194  0.24996  0.34671  1.0000
  C   C176      1.0  0.60067  0.24944  0.34090  1.0000
  N   N31       1.0  0.61525  0.24822  0.41942  1.0000
  C   C177      1.0  0.64375  0.24663  0.42721  1.0000
  C   C178      1.0  0.65620  0.24747  0.51287  1.0000
  O   O31       1.0  0.63845  0.24187  0.57910  1.0000
  H   H85       1.0  0.67296  0.24029  0.51921  1.0000
  C   C179      1.0  0.76613  0.41520  0.34560  1.0000
  C   C180      1.0  0.76678  0.35440  0.34070  1.0000
  N   N32       1.0  0.76777  0.37029  0.41891  1.0000
  C   C181      1.0  0.76936  0.40038  0.42645  1.0000
  C   C182      1.0  0.76827  0.41197  0.51208  1.0000
  O   O32       1.0  0.77558  0.40064  0.57707  1.0000
  H   H86       1.0  0.77507  0.43579  0.51810  1.0000
  C   C183      1.0  0.60111  0.35427  0.34579  1.0000
  C   C184      1.0  0.66177  0.41570  0.33920  1.0000
  N   N33       1.0  0.64624  0.40099  0.41798  1.0000
  C   C185      1.0  0.61621  0.37246  0.42626  1.0000
  C   C186      1.0  0.60498  0.35991  0.51224  1.0000
  O   O33       1.0  0.61742  0.37798  0.57776  1.0000
  H   H87       1.0  0.58095  0.34350  0.51829  1.0000
  C   C187      1.0  0.85759  0.26311  0.34598  1.0000
  C   C188      1.0  0.91893  0.26357  0.33906  1.0000
  N   N34       1.0  0.90438  0.26472  0.41780  1.0000
  C   C189      1.0  0.87593  0.26637  0.42614  1.0000
  C   C190      1.0  0.86355  0.26529  0.51203  1.0000
  O   O34       1.0  0.88143  0.27093  0.57801  1.0000
  H   H88       1.0  0.84667  0.27228  0.51889  1.0000
  C   C191      1.0  0.75326  0.09784  0.34690  1.0000
  C   C192      1.0  0.75278  0.15859  0.34040  1.0000
  N   N35       1.0  0.75152  0.14292  0.41917  1.0000
  C   C193      1.0  0.74994  0.11285  0.42714  1.0000
  C   C194      1.0  0.75075  0.10129  0.51289  1.0000
  O   O35       1.0  0.74511  0.11347  0.57901  1.0000
  H   H89       1.0  0.74361  0.07737  0.51938  1.0000
  C   C195      1.0  0.91839  0.15868  0.34561  1.0000
  C   C196      1.0  0.85771  0.09744  0.34075  1.0000
  N   N36       1.0  0.87352  0.11217  0.41913  1.0000
  C   C197      1.0  0.90363  0.14067  0.42653  1.0000
  C   C198      1.0  0.91530  0.15335  0.51209  1.0000
  O   O36       1.0  0.90404  0.13473  0.57711  1.0000
  H   H90       1.0  0.93912  0.17038  0.51796  1.0000
  C   C199      1.0  0.52781  0.76546  0.34706  1.0000
  C   C200      1.0  0.54720  0.80107  0.34812  1.0000
  C   C201      1.0  0.58236  0.81907  0.34642  1.0000
  C   C202      1.0  0.59959  0.80120  0.34563  1.0000
  H   H91       1.0  0.53615  0.81522  0.35005  1.0000
  O   O37       1.0  0.63353  0.81811  0.34724  1.0000
  C   C203      1.0  0.99173  0.74750  0.34688  1.0000
  C   C204      1.0  0.91995  0.71178  0.34406  1.0000
  C   C205      1.0  0.93716  0.69390  0.34558  1.0000
  C   C206      1.0  0.97232  0.71190  0.34819  1.0000
  O   O38       1.0  0.88600  0.69490  0.34532  1.0000
  H   H92       1.0  0.98337  0.69776  0.35079  1.0000
  C   C207      1.0  0.75078  0.76555  0.34715  1.0000
  C   C208      1.0  0.71517  0.74933  0.34859  1.0000
  C   C209      1.0  0.69716  0.76648  0.34679  1.0000
  C   C210      1.0  0.71502  0.80157  0.34610  1.0000
  H   H93       1.0  0.70105  0.72413  0.35077  1.0000
  O   O39       1.0  0.69812  0.81861  0.34792  1.0000
  C   C211      1.0  0.76875  0.74745  0.34704  1.0000
  C   C212      1.0  0.80454  0.71146  0.34523  1.0000
  C   C213      1.0  0.82238  0.74656  0.34607  1.0000
  C   C214      1.0  0.80436  0.76369  0.34821  1.0000
  O   O40       1.0  0.82146  0.69444  0.34696  1.0000
  H   H94       1.0  0.81848  0.78889  0.35050  1.0000
  C   C215      1.0  0.75066  0.98851  0.34692  1.0000
  C   C216      1.0  0.76686  0.96911  0.34829  1.0000
  C   C217      1.0  0.74969  0.93396  0.34572  1.0000
  C   C218      1.0  0.71460  0.91674  0.34420  1.0000
  H   H95       1.0  0.79205  0.98016  0.35102  1.0000
  O   O41       1.0  0.69754  0.88279  0.34527  1.0000
  C   C219      1.0  0.76881  0.52459  0.34715  1.0000
  C   C220      1.0  0.80487  0.59637  0.34639  1.0000
  C   C221      1.0  0.76977  0.57915  0.34696  1.0000
  C   C222      1.0  0.75260  0.54399  0.34865  1.0000
  O   O42       1.0  0.82192  0.63031  0.34834  1.0000
  H   H96       1.0  0.72741  0.53293  0.35085  1.0000
  N   N37       1.0  0.64869  0.75380  0.26867  1.0000
  C   C223      1.0  0.61871  0.75198  0.26159  1.0000
  H   H97       1.0  0.61242  0.75788  0.20096  1.0000
  N   N38       1.0  0.76259  0.89809  0.26781  1.0000
  C   C224      1.0  0.76441  0.86992  0.26125  1.0000
  H   H98       1.0  0.75886  0.85777  0.20060  1.0000
  N   N39       1.0  0.61792  0.86768  0.26753  1.0000
  C   C225      1.0  0.64604  0.89768  0.26019  1.0000
  H   H99       1.0  0.65804  0.90418  0.19931  1.0000
  N   N40       1.0  0.87078  0.75928  0.26779  1.0000
  C   C226      1.0  0.90077  0.76114  0.26015  1.0000
  H   H100      1.0  0.90693  0.75511  0.19954  1.0000
  N   N41       1.0  0.75716  0.61493  0.26875  1.0000
  C   C227      1.0  0.75536  0.64309  0.26124  1.0000
  H   H101      1.0  0.76133  0.65525  0.20058  1.0000
  N   N42       1.0  0.90129  0.64523  0.26774  1.0000
  C   C228      1.0  0.87309  0.61525  0.26114  1.0000
  H   H102      1.0  0.86088  0.60865  0.20058  1.0000
  C   C229      1.0  0.58220  0.76610  0.34367  1.0000
  C   C230      1.0  0.54704  0.74909  0.34500  1.0000
  C   C231      1.0  0.97251  0.76389  0.34430  1.0000
  C   C232      1.0  0.93736  0.74689  0.34244  1.0000
  H   H103      1.0  0.63972  0.82071  0.41149  1.0000
  H   H104      1.0  0.87973  0.69222  0.40951  1.0000
  H   H105      1.0  0.53584  0.72388  0.34283  1.0000
  H   H106      1.0  0.98371  0.78910  0.34221  1.0000
  C   C233      1.0  0.75011  0.81929  0.34388  1.0000
  C   C234      1.0  0.76714  0.80116  0.34473  1.0000
  C   C235      1.0  0.75240  0.71185  0.34479  1.0000
  C   C236      1.0  0.76944  0.69373  0.34332  1.0000
  H   H107      1.0  0.69549  0.82213  0.41221  1.0000
  H   H108      1.0  0.82408  0.69090  0.41122  1.0000
  H   H109      1.0  0.79234  0.81518  0.34223  1.0000
  H   H110      1.0  0.72719  0.69782  0.34262  1.0000
  C   C237      1.0  0.69690  0.93414  0.34264  1.0000
  C   C238      1.0  0.71505  0.96930  0.34432  1.0000
  C   C239      1.0  0.80441  0.54381  0.34473  1.0000
  C   C240      1.0  0.82257  0.57898  0.34402  1.0000
  H   H111      1.0  0.69399  0.87646  0.40943  1.0000
  H   H112      1.0  0.82539  0.63642  0.41265  1.0000
  H   H113      1.0  0.70105  0.98050  0.34203  1.0000
  H   H114      1.0  0.81841  0.53261  0.34200  1.0000
  C   C241      1.0  0.66194  0.74996  0.34671  1.0000
  C   C242      1.0  0.60067  0.74944  0.34090  1.0000
  N   N43       1.0  0.61525  0.74821  0.41942  1.0000
  C   C243      1.0  0.64375  0.74663  0.42721  1.0000
  C   C244      1.0  0.65620  0.74747  0.51287  1.0000
  O   O43       1.0  0.63845  0.74187  0.57910  1.0000
  H   H115      1.0  0.67296  0.74029  0.51921  1.0000
  C   C245      1.0  0.76613  0.91520  0.34560  1.0000
  C   C246      1.0  0.76677  0.85440  0.34070  1.0000
  N   N44       1.0  0.76778  0.87029  0.41891  1.0000
  C   C247      1.0  0.76936  0.90038  0.42645  1.0000
  C   C248      1.0  0.76827  0.91197  0.51208  1.0000
  O   O44       1.0  0.77558  0.90064  0.57707  1.0000
  H   H116      1.0  0.77508  0.93579  0.51810  1.0000
  C   C249      1.0  0.60110  0.85427  0.34579  1.0000
  C   C250      1.0  0.66177  0.91570  0.33920  1.0000
  N   N45       1.0  0.64624  0.90099  0.41798  1.0000
  C   C251      1.0  0.61621  0.87246  0.42626  1.0000
  C   C252      1.0  0.60497  0.85991  0.51224  1.0000
  O   O45       1.0  0.61742  0.87798  0.57776  1.0000
  H   H117      1.0  0.58095  0.84349  0.51829  1.0000
  C   C253      1.0  0.85759  0.76311  0.34598  1.0000
  C   C254      1.0  0.91893  0.76357  0.33906  1.0000
  N   N46       1.0  0.90438  0.76472  0.41780  1.0000
  C   C255      1.0  0.87593  0.76637  0.42614  1.0000
  C   C256      1.0  0.86355  0.76529  0.51203  1.0000
  O   O46       1.0  0.88143  0.77093  0.57801  1.0000
  H   H118      1.0  0.84667  0.77228  0.51889  1.0000
  C   C257      1.0  0.75326  0.59784  0.34690  1.0000
  C   C258      1.0  0.75278  0.65859  0.34040  1.0000
  N   N47       1.0  0.75151  0.64292  0.41917  1.0000
  C   C259      1.0  0.74994  0.61285  0.42714  1.0000
  C   C260      1.0  0.75075  0.60129  0.51289  1.0000
  O   O47       1.0  0.74511  0.61347  0.57901  1.0000
  H   H119      1.0  0.74361  0.57737  0.51938  1.0000
  C   C261      1.0  0.91839  0.65868  0.34561  1.0000
  C   C262      1.0  0.85771  0.59744  0.34075  1.0000
  N   N48       1.0  0.87352  0.61217  0.41913  1.0000
  C   C263      1.0  0.90363  0.64067  0.42653  1.0000
  C   C264      1.0  0.91530  0.65335  0.51209  1.0000
  O   O48       1.0  0.90404  0.63473  0.57711  1.0000
  H   H120      1.0  0.93912  0.67038  0.51796  1.0000
