data_image0
_chemical_formula_structural       C10H6C6H2C2H2C10H6C6H2C2H2C3H2C4H4NC3H2C4H4NC3H2C4H4NC8H7CHC8H7CHC3NC2N2C3NC2N2C3NC2N2
_chemical_formula_sum              "C90 H54 N12"
_cell_length_a       37.5119
_cell_length_b       37.4817
_cell_length_c       14.5617
_cell_angle_alpha    90
_cell_angle_beta     90
_cell_angle_gamma    120.018

_space_group_name_H-M_alt    "P 1"
_space_group_IT_number       1

loop_
  _space_group_symop_operation_xyz
  'x, y, z'

loop_
  _atom_site_type_symbol
  _atom_site_label
  _atom_site_symmetry_multiplicity
  _atom_site_fract_x
  _atom_site_fract_y
  _atom_site_fract_z
  _atom_site_occupancy
  C   C1        1.0  0.26674  0.64247  0.36453  1.0000
  C   C2        1.0  0.39479  0.63306  0.35918  1.0000
  C   C3        1.0  0.17841  0.60343  0.33995  1.0000
  C   C4        1.0  0.20595  0.64023  0.29323  1.0000
  C   C5        1.0  0.24887  0.65921  0.30525  1.0000
  C   C6        1.0  0.39020  0.79192  0.30635  1.0000
  C   C7        1.0  0.41347  0.83499  0.29492  1.0000
  C   C8        1.0  0.43374  0.58356  0.33509  1.0000
  C   C9        1.0  0.39757  0.57500  0.28650  1.0000
  C   C10       1.0  0.37864  0.59903  0.29826  1.0000
  H   H1        1.0  0.19501  0.65362  0.24859  1.0000
  H   H2        1.0  0.26711  0.68507  0.26748  1.0000
  H   H3        1.0  0.36407  0.77607  0.26780  1.0000
  H   H4        1.0  0.40317  0.84866  0.24942  1.0000
  H   H5        1.0  0.38454  0.55103  0.24084  1.0000
  H   H6        1.0  0.35317  0.59180  0.25948  1.0000
  C   C11       1.0  0.37512  0.65760  0.36924  1.0000
  C   C12       1.0  0.39837  0.70136  0.37077  1.0000
  C   C13       1.0  0.37959  0.72617  0.37297  1.0000
  C   C14       1.0  0.33596  0.70548  0.37551  1.0000
  C   C15       1.0  0.31097  0.66197  0.37294  1.0000
  C   C16       1.0  0.33149  0.63887  0.37101  1.0000
  H   H7        1.0  0.42969  0.71554  0.36422  1.0000
  H   H8        1.0  0.31406  0.60744  0.36797  1.0000
  C   C17       1.0  0.45196  0.55935  0.31817  1.0000
  C   C18       1.0  0.13607  0.58508  0.32239  1.0000
  H   H9        1.0  0.44311  0.54216  0.26176  1.0000
  H   H10       1.0  0.12781  0.59388  0.26579  1.0000
  C   C19       1.0  0.77755  0.38873  0.36358  1.0000
  C   C20       1.0  0.64829  0.39689  0.35652  1.0000
  C   C21       1.0  0.86623  0.42669  0.36765  1.0000
  C   C22       1.0  0.84161  0.38966  0.31900  1.0000
  C   C23       1.0  0.79840  0.37141  0.31634  1.0000
  C   C24       1.0  0.65133  0.23369  0.32408  1.0000
  C   C25       1.0  0.62702  0.19028  0.32931  1.0000
  C   C26       1.0  0.61032  0.44766  0.36065  1.0000
  C   C27       1.0  0.64655  0.45939  0.30941  1.0000
  C   C28       1.0  0.66479  0.43439  0.30673  1.0000
  H   H11       1.0  0.85497  0.37533  0.28534  1.0000
  H   H12       1.0  0.78220  0.34493  0.27905  1.0000
  H   H13       1.0  0.67681  0.24605  0.28285  1.0000
  H   H14       1.0  0.63596  0.17283  0.29248  1.0000
  H   H15       1.0  0.66036  0.48666  0.27403  1.0000
  H   H16       1.0  0.69073  0.44422  0.26776  1.0000
  C   C29       1.0  0.66860  0.37266  0.35841  1.0000
  C   C30       1.0  0.64581  0.32896  0.36073  1.0000
  C   C31       1.0  0.66465  0.30429  0.36597  1.0000
  C   C32       1.0  0.70828  0.32508  0.36727  1.0000
  C   C33       1.0  0.73306  0.36867  0.36333  1.0000
  C   C34       1.0  0.71222  0.39150  0.35968  1.0000
  H   H17       1.0  0.61442  0.31455  0.35615  1.0000
  H   H18       1.0  0.72944  0.42294  0.35810  1.0000
  C   C35       1.0  0.59526  0.47478  0.36924  1.0000
  C   C36       1.0  0.90842  0.44192  0.37590  1.0000
  H   H19       1.0  0.61540  0.50415  0.38326  1.0000
  H   H20       1.0  0.91772  0.42192  0.39069  1.0000
  C   C37       1.0  0.53942  0.48742  0.36109  1.0000
  C   C38       1.0  0.51731  0.48902  0.28441  1.0000
  C   C39       1.0  0.49719  0.51229  0.28629  1.0000
  H   H21       1.0  0.48227  0.51281  0.22813  1.0000
  H   H22       1.0  0.51610  0.47347  0.22563  1.0000
  C   C40       1.0  0.58030  0.52390  0.00988  1.0000
  C   C41       1.0  0.58083  0.54478  0.09069  1.0000
  C   C42       1.0  0.56082  0.56808  0.09316  1.0000
  C   C43       1.0  0.54012  0.57061  0.01491  1.0000
  H   H23       1.0  0.59489  0.50703  0.00847  1.0000
  H   H24       1.0  0.59575  0.54299  0.14774  1.0000
  H   H25       1.0  0.56128  0.58318  0.15202  1.0000
  H   H26       1.0  0.52562  0.58755  0.01729  1.0000
  N   N1        1.0  0.55721  0.46408  0.35593  1.0000
  C   C44       1.0  0.55337  0.06000  0.37204  1.0000
  C   C45       1.0  0.55281  0.03648  0.29584  1.0000
  C   C46       1.0  0.53081  0.99300  0.29812  1.0000
  H   H27       1.0  0.53139  0.97755  0.24088  1.0000
  H   H28       1.0  0.56823  0.05100  0.23709  1.0000
  C   C47       1.0  0.51639  0.06316  0.02137  1.0000
  C   C48       1.0  0.49569  0.04247  0.10204  1.0000
  C   C49       1.0  0.47324  0.99909  0.10438  1.0000
  C   C50       1.0  0.47140  0.97614  0.02612  1.0000
  H   H29       1.0  0.53260  0.09466  0.02002  1.0000
  H   H30       1.0  0.49697  0.05898  0.15908  1.0000
  H   H31       1.0  0.45827  0.98421  0.16315  1.0000
  H   H32       1.0  0.45509  0.94466  0.02838  1.0000
  N   N2        1.0  0.57529  0.10132  0.36600  1.0000
  C   C51       1.0  0.97682  0.49777  0.36626  1.0000
  C   C52       1.0  0.00041  0.51976  0.28930  1.0000
  C   C53       1.0  0.04378  0.53986  0.29082  1.0000
  H   H33       1.0  0.05918  0.55476  0.23258  1.0000
  H   H34       1.0  0.98600  0.52094  0.23064  1.0000
  C   C54       1.0  0.97289  0.45701  0.01505  1.0000
  C   C55       1.0  0.99337  0.45650  0.09563  1.0000
  C   C56       1.0  0.03668  0.47648  0.09769  1.0000
  C   C57       1.0  0.05978  0.49713  0.01924  1.0000
  H   H35       1.0  0.94144  0.44245  0.01395  1.0000
  H   H36       1.0  0.97675  0.44161  0.15281  1.0000
  H   H37       1.0  0.05140  0.47604  0.15639  1.0000
  H   H38       1.0  0.09122  0.51161  0.02129  1.0000
  N   N3        1.0  0.93570  0.47992  0.36139  1.0000
  C   C58       1.0  0.40328  0.77054  0.36531  1.0000
  C   C59       1.0  0.23917  0.60550  0.41105  1.0000
  C   C60       1.0  0.19599  0.58649  0.39945  1.0000
  C   C61       1.0  0.45083  0.85892  0.34289  1.0000
  C   C62       1.0  0.46413  0.83806  0.40243  1.0000
  C   C63       1.0  0.44088  0.79474  0.41301  1.0000
  C   C64       1.0  0.43119  0.64184  0.40740  1.0000
  C   C65       1.0  0.45015  0.61759  0.39604  1.0000
  H   H39       1.0  0.17746  0.55968  0.43398  1.0000
  H   H40       1.0  0.45177  0.78091  0.45636  1.0000
  H   H41       1.0  0.49157  0.85412  0.43644  1.0000
  H   H42       1.0  0.44408  0.66591  0.45267  1.0000
  H   H43       1.0  0.47645  0.62537  0.43211  1.0000
  H   H44       1.0  0.32181  0.72276  0.37904  1.0000
  H   H45       1.0  0.25037  0.59212  0.45486  1.0000
  C   C66       1.0  0.47498  0.90069  0.32232  1.0000
  H   H46       1.0  0.48057  0.90827  0.25638  1.0000
  C   C67       1.0  0.64038  0.25989  0.37156  1.0000
  C   C68       1.0  0.80261  0.42618  0.41140  1.0000
  C   C69       1.0  0.84598  0.44482  0.41343  1.0000
  C   C70       1.0  0.59055  0.17099  0.38261  1.0000
  C   C71       1.0  0.57987  0.19712  0.43095  1.0000
  C   C72       1.0  0.60416  0.24037  0.42569  1.0000
  C   C73       1.0  0.61163  0.38521  0.40696  1.0000
  C   C74       1.0  0.59295  0.40990  0.40891  1.0000
  H   H47       1.0  0.86256  0.47103  0.45149  1.0000
  H   H48       1.0  0.59518  0.25758  0.46333  1.0000
  H   H49       1.0  0.55402  0.18485  0.47116  1.0000
  H   H50       1.0  0.59886  0.35913  0.44636  1.0000
  H   H51       1.0  0.56744  0.40086  0.44906  1.0000
  H   H52       1.0  0.72240  0.30794  0.37491  1.0000
  H   H53       1.0  0.78938  0.43964  0.44860  1.0000
  C   C75       1.0  0.56483  0.12815  0.38850  1.0000
  H   H54       1.0  0.53648  0.11761  0.41286  1.0000
  C   C76       1.0  0.49744  0.53435  0.36573  1.0000
  C   C77       1.0  0.51899  0.53216  0.44358  1.0000
  C   C78       1.0  0.53960  0.50882  0.44140  1.0000
  N   N4        1.0  0.55889  0.50702  0.51888  1.0000
  C   C79       1.0  0.55983  0.52653  0.59801  1.0000
  C   C80       1.0  0.53965  0.54995  0.60039  1.0000
  N   N5        1.0  0.52011  0.55166  0.52339  1.0000
  N   N6        1.0  0.47803  0.55647  0.37120  1.0000
  C   C81       1.0  0.50879  0.97101  0.37734  1.0000
  C   C82       1.0  0.51037  0.99448  0.45516  1.0000
  C   C83       1.0  0.53257  0.03845  0.45274  1.0000
  N   N7        1.0  0.53371  0.05917  0.53038  1.0000
  C   C84       1.0  0.51446  0.04033  0.60952  1.0000
  C   C85       1.0  0.49194  0.99668  0.61177  1.0000
  N   N8        1.0  0.49097  0.97574  0.53481  1.0000
  N   N9        1.0  0.48726  0.92954  0.38301  1.0000
  C   C86       1.0  0.06566  0.53964  0.37012  1.0000
  C   C87       1.0  0.04206  0.51816  0.44817  1.0000
  C   C88       1.0  0.99813  0.49760  0.44638  1.0000
  N   N10       1.0  0.97718  0.47836  0.52405  1.0000
  C   C89       1.0  0.99587  0.47743  0.60299  1.0000
  C   C90       1.0  0.03946  0.49759  0.60494  1.0000
  N   N11       1.0  0.06058  0.51707  0.52777  1.0000
  N   N12       1.0  0.10715  0.55910  0.37555  1.0000
