data_image0
_chemical_formula_structural       C8H8C2HC3N2HC16H4C3NC2HNCHC2NC3HC3HNCN2HCHC8H8C2HC3N2HC16H4C3NC2HNCHC2NC3HC3HNCN2HCHC8H8C2HC3N2HC16H4C3NC2HNCHC2NC3HC3HNCN2HCHC8H8C2HC3N2HC16H4C3NC2HNCHC2NC3HC3HNCN2HCH
_chemical_formula_sum              "C180 H80 N32"
_cell_length_a       33.607
_cell_length_b       33.607
_cell_length_c       14.9721
_cell_angle_alpha    90
_cell_angle_beta     90
_cell_angle_gamma    89.9983

_space_group_name_H-M_alt    "P 1"
_space_group_IT_number       1

loop_
  _space_group_symop_operation_xyz
  'x, y, z'

loop_
  _atom_site_type_symbol
  _atom_site_label
  _atom_site_symmetry_multiplicity
  _atom_site_fract_x
  _atom_site_fract_y
  _atom_site_fract_z
  _atom_site_occupancy
  C   C1        1.0  0.99629  0.47887  0.28789  1.0000
  C   C2        1.0  0.99622  0.02038  0.28779  1.0000
  C   C3        1.0  0.00039  0.10300  0.32415  1.0000
  C   C4        1.0  0.99906  0.08857  0.23509  1.0000
  C   C5        1.0  0.99696  0.04763  0.21671  1.0000
  C   C6        1.0  0.99700  0.45155  0.21696  1.0000
  C   C7        1.0  0.99913  0.41062  0.23552  1.0000
  C   C8        1.0  0.00052  0.39628  0.32463  1.0000
  H   H1        1.0  0.10516  0.00242  0.02792  1.0000
  H   H2        1.0  0.03554  0.99930  0.05775  1.0000
  H   H3        1.0  0.45817  0.49928  0.05763  1.0000
  H   H4        1.0  0.38857  0.50240  0.02768  1.0000
  H   H5        1.0  0.99971  0.10787  0.18223  1.0000
  H   H6        1.0  0.99669  0.03821  0.15230  1.0000
  H   H7        1.0  0.99666  0.46089  0.15252  1.0000
  H   H8        1.0  0.99977  0.39128  0.18274  1.0000
  C   C9        1.0  0.53446  0.29067  0.29879  1.0000
  C   C10       1.0  0.53356  0.33237  0.29303  1.0000
  H   H9        1.0  0.55334  0.34638  0.25159  1.0000
  C   C11       1.0  0.00444  0.14467  0.33962  1.0000
  C   C12       1.0  0.03339  0.16691  0.29249  1.0000
  C   C13       1.0  0.03436  0.20861  0.29849  1.0000
  N   N1        1.0  0.06055  0.23020  0.24941  1.0000
  N   N2        1.0  0.56059  0.26908  0.24955  1.0000
  H   H10       1.0  0.05317  0.15291  0.25103  1.0000
  C   C14       1.0  0.99691  0.46544  0.37626  1.0000
  C   C15       1.0  0.99687  0.03389  0.37610  1.0000
  C   C16       1.0  0.99852  0.07509  0.39510  1.0000
  C   C17       1.0  0.99859  0.42426  0.39545  1.0000
  C   C18       1.0  0.03120  0.99967  0.50068  1.0000
  C   C19       1.0  0.01767  0.99897  0.58898  1.0000
  C   C20       1.0  0.47612  0.49901  0.58893  1.0000
  C   C21       1.0  0.46262  0.49967  0.50061  1.0000
  C   C22       1.0  0.44880  0.49968  0.65988  1.0000
  C   C23       1.0  0.40786  0.50184  0.64145  1.0000
  C   C24       1.0  0.39338  0.50336  0.55244  1.0000
  C   C25       1.0  0.42140  0.50146  0.48159  1.0000
  C   C26       1.0  0.07243  0.00140  0.48174  1.0000
  C   C27       1.0  0.10041  0.00333  0.55266  1.0000
  C   C28       1.0  0.08590  0.00183  0.64165  1.0000
  C   C29       1.0  0.04494  0.99966  0.66000  1.0000
  H   H11       1.0  0.41217  0.50300  0.41659  1.0000
  H   H12       1.0  0.08168  0.00301  0.41677  1.0000
  H   H13       1.0  0.99998  0.08435  0.46009  1.0000
  H   H14       1.0  0.00009  0.41504  0.46046  1.0000
  C   C30       1.0  0.99691  0.99969  0.43845  1.0000
  C   C31       1.0  0.50462  0.35461  0.34018  1.0000
  C   C32       1.0  0.47829  0.33330  0.39642  1.0000
  N   N3        1.0  0.47963  0.29284  0.40016  1.0000
  C   C33       1.0  0.50636  0.27067  0.35336  1.0000
  C   C34       1.0  0.00631  0.22859  0.35320  1.0000
  H   H15       1.0  0.45637  0.34773  0.43089  1.0000
  N   N4        1.0  0.97955  0.20643  0.39989  1.0000
  C   C35       1.0  0.97812  0.16597  0.39589  1.0000
  H   H16       1.0  0.95624  0.15154  0.43045  1.0000
  C   C36       1.0  0.14218  0.50748  0.53740  1.0000
  C   C37       1.0  0.16450  0.53591  0.58615  1.0000
  N   N5        1.0  0.20473  0.53700  0.58062  1.0000
  C   C38       1.0  0.22592  0.51189  0.52800  1.0000
  C   C39       1.0  0.20546  0.48353  0.47513  1.0000
  C   C40       1.0  0.16351  0.48182  0.47947  1.0000
  H   H17       1.0  0.14883  0.46018  0.44445  1.0000
  C   C41       1.0  0.26787  0.51191  0.52791  1.0000
  C   C42       1.0  0.35162  0.50753  0.53712  1.0000
  C   C43       1.0  0.33027  0.48186  0.47924  1.0000
  H   H18       1.0  0.15086  0.55553  0.62837  1.0000
  N   N6        1.0  0.28907  0.53704  0.58047  1.0000
  C   C44       1.0  0.28832  0.48357  0.47497  1.0000
  N   N7        1.0  0.26641  0.45775  0.42519  1.0000
  N   N8        1.0  0.22735  0.45774  0.42526  1.0000
  H   H19       1.0  0.34495  0.46021  0.44424  1.0000
  C   C45       1.0  0.32931  0.53597  0.58587  1.0000
  H   H20       1.0  0.34296  0.55558  0.62811  1.0000
  C   C46       1.0  0.99629  0.97887  0.28789  1.0000
  C   C47       1.0  0.99622  0.52038  0.28779  1.0000
  C   C48       1.0  0.00039  0.60300  0.32415  1.0000
  C   C49       1.0  0.99906  0.58858  0.23509  1.0000
  C   C50       1.0  0.99697  0.54763  0.21671  1.0000
  C   C51       1.0  0.99700  0.95155  0.21696  1.0000
  C   C52       1.0  0.99913  0.91062  0.23552  1.0000
  C   C53       1.0  0.00052  0.89628  0.32463  1.0000
  H   H21       1.0  0.10516  0.50242  0.02791  1.0000
  H   H22       1.0  0.03554  0.49930  0.05774  1.0000
  H   H23       1.0  0.45817  0.99928  0.05764  1.0000
  H   H24       1.0  0.38857  0.00240  0.02768  1.0000
  H   H25       1.0  0.99971  0.60788  0.18223  1.0000
  H   H26       1.0  0.99669  0.53821  0.15230  1.0000
  H   H27       1.0  0.99666  0.96089  0.15252  1.0000
  H   H28       1.0  0.99977  0.89128  0.18274  1.0000
  C   C54       1.0  0.53446  0.79067  0.29879  1.0000
  C   C55       1.0  0.53356  0.83237  0.29304  1.0000
  H   H29       1.0  0.55335  0.84638  0.25160  1.0000
  C   C56       1.0  0.00444  0.64468  0.33962  1.0000
  C   C57       1.0  0.03340  0.66691  0.29250  1.0000
  C   C58       1.0  0.03437  0.70861  0.29850  1.0000
  N   N9        1.0  0.06055  0.73020  0.24942  1.0000
  N   N10       1.0  0.56060  0.76908  0.24956  1.0000
  H   H30       1.0  0.05317  0.65291  0.25104  1.0000
  C   C59       1.0  0.99691  0.96544  0.37626  1.0000
  C   C60       1.0  0.99687  0.53389  0.37610  1.0000
  C   C61       1.0  0.99852  0.57508  0.39510  1.0000
  C   C62       1.0  0.99859  0.92426  0.39545  1.0000
  C   C63       1.0  0.03120  0.49967  0.50068  1.0000
  C   C64       1.0  0.01767  0.49897  0.58897  1.0000
  C   C65       1.0  0.47612  0.99901  0.58893  1.0000
  C   C66       1.0  0.46262  0.99967  0.50062  1.0000
  C   C67       1.0  0.44880  0.99967  0.65988  1.0000
  C   C68       1.0  0.40786  0.00183  0.64146  1.0000
  C   C69       1.0  0.39338  0.00336  0.55244  1.0000
  C   C70       1.0  0.42140  0.00146  0.48159  1.0000
  C   C71       1.0  0.07243  0.50140  0.48174  1.0000
  C   C72       1.0  0.10041  0.50333  0.55266  1.0000
  C   C73       1.0  0.08590  0.50183  0.64165  1.0000
  C   C74       1.0  0.04494  0.49966  0.66000  1.0000
  H   H31       1.0  0.41217  0.00300  0.41660  1.0000
  H   H32       1.0  0.08168  0.50301  0.41677  1.0000
  H   H33       1.0  0.99998  0.58435  0.46009  1.0000
  H   H34       1.0  0.00009  0.91505  0.46047  1.0000
  C   C75       1.0  0.99691  0.49968  0.43845  1.0000
  C   C76       1.0  0.50462  0.85461  0.34019  1.0000
  C   C77       1.0  0.47829  0.83330  0.39642  1.0000
  N   N11       1.0  0.47964  0.79284  0.40016  1.0000
  C   C78       1.0  0.50637  0.77067  0.35337  1.0000
  C   C79       1.0  0.00632  0.72859  0.35321  1.0000
  H   H35       1.0  0.45637  0.84773  0.43089  1.0000
  N   N12       1.0  0.97955  0.70643  0.39989  1.0000
  C   C80       1.0  0.97812  0.66597  0.39589  1.0000
  H   H36       1.0  0.95624  0.65154  0.43045  1.0000
  C   C81       1.0  0.14218  0.00748  0.53740  1.0000
  C   C82       1.0  0.16450  0.03591  0.58616  1.0000
  N   N13       1.0  0.20473  0.03700  0.58063  1.0000
  C   C83       1.0  0.22592  0.01189  0.52800  1.0000
  C   C84       1.0  0.20546  0.98353  0.47513  1.0000
  C   C85       1.0  0.16351  0.98182  0.47947  1.0000
  H   H37       1.0  0.14883  0.96018  0.44445  1.0000
  C   C86       1.0  0.26787  0.01191  0.52791  1.0000
  C   C87       1.0  0.35162  0.00753  0.53713  1.0000
  C   C88       1.0  0.33027  0.98186  0.47924  1.0000
  H   H38       1.0  0.15086  0.05553  0.62838  1.0000
  N   N14       1.0  0.28907  0.03704  0.58047  1.0000
  C   C89       1.0  0.28832  0.98357  0.47497  1.0000
  N   N15       1.0  0.26641  0.95776  0.42519  1.0000
  N   N16       1.0  0.22735  0.95774  0.42526  1.0000
  H   H39       1.0  0.34495  0.96022  0.44424  1.0000
  C   C90       1.0  0.32931  0.03597  0.58587  1.0000
  H   H40       1.0  0.34296  0.05558  0.62811  1.0000
  C   C91       1.0  0.49629  0.47887  0.28789  1.0000
  C   C92       1.0  0.49622  0.02038  0.28779  1.0000
  C   C93       1.0  0.50039  0.10300  0.32415  1.0000
  C   C94       1.0  0.49905  0.08857  0.23509  1.0000
  C   C95       1.0  0.49696  0.04763  0.21671  1.0000
  C   C96       1.0  0.49700  0.45155  0.21696  1.0000
  C   C97       1.0  0.49913  0.41062  0.23552  1.0000
  C   C98       1.0  0.50052  0.39628  0.32463  1.0000
  H   H41       1.0  0.60516  0.00242  0.02792  1.0000
  H   H42       1.0  0.53554  0.99930  0.05775  1.0000
  H   H43       1.0  0.95817  0.49928  0.05763  1.0000
  H   H44       1.0  0.88857  0.50240  0.02768  1.0000
  H   H45       1.0  0.49971  0.10787  0.18223  1.0000
  H   H46       1.0  0.49670  0.03821  0.15230  1.0000
  H   H47       1.0  0.49666  0.46089  0.15252  1.0000
  H   H48       1.0  0.49977  0.39128  0.18274  1.0000
  C   C99       1.0  0.03446  0.29067  0.29879  1.0000
  C   C100      1.0  0.03356  0.33237  0.29303  1.0000
  H   H49       1.0  0.05334  0.34638  0.25159  1.0000
  C   C101      1.0  0.50444  0.14467  0.33962  1.0000
  C   C102      1.0  0.53340  0.16691  0.29249  1.0000
  C   C103      1.0  0.53436  0.20861  0.29849  1.0000
  N   N17       1.0  0.56055  0.23020  0.24941  1.0000
  N   N18       1.0  0.06059  0.26908  0.24955  1.0000
  H   H50       1.0  0.55317  0.15291  0.25103  1.0000
  C   C104      1.0  0.49691  0.46544  0.37626  1.0000
  C   C105      1.0  0.49687  0.03389  0.37610  1.0000
  C   C106      1.0  0.49852  0.07509  0.39510  1.0000
  C   C107      1.0  0.49859  0.42426  0.39545  1.0000
  C   C108      1.0  0.53120  0.99967  0.50068  1.0000
  C   C109      1.0  0.51767  0.99897  0.58898  1.0000
  C   C110      1.0  0.97612  0.49901  0.58893  1.0000
  C   C111      1.0  0.96262  0.49967  0.50061  1.0000
  C   C112      1.0  0.94880  0.49968  0.65988  1.0000
  C   C113      1.0  0.90785  0.50184  0.64145  1.0000
  C   C114      1.0  0.89339  0.50336  0.55244  1.0000
  C   C115      1.0  0.92140  0.50146  0.48159  1.0000
  C   C116      1.0  0.57243  0.00140  0.48174  1.0000
  C   C117      1.0  0.60041  0.00333  0.55266  1.0000
  C   C118      1.0  0.58590  0.00183  0.64165  1.0000
  C   C119      1.0  0.54495  0.99966  0.66000  1.0000
  H   H51       1.0  0.91217  0.50300  0.41659  1.0000
  H   H52       1.0  0.58168  0.00301  0.41677  1.0000
  H   H53       1.0  0.49998  0.08435  0.46009  1.0000
  H   H54       1.0  0.50009  0.41504  0.46046  1.0000
  C   C120      1.0  0.49691  0.99969  0.43845  1.0000
  C   C121      1.0  0.00462  0.35461  0.34018  1.0000
  C   C122      1.0  0.97829  0.33330  0.39642  1.0000
  N   N19       1.0  0.97964  0.29284  0.40016  1.0000
  C   C123      1.0  0.00636  0.27067  0.35336  1.0000
  C   C124      1.0  0.50632  0.22859  0.35320  1.0000
  H   H55       1.0  0.95637  0.34773  0.43089  1.0000
  N   N20       1.0  0.47955  0.20643  0.39989  1.0000
  C   C125      1.0  0.47812  0.16597  0.39589  1.0000
  H   H56       1.0  0.45624  0.15154  0.43045  1.0000
  C   C126      1.0  0.64218  0.50748  0.53740  1.0000
  C   C127      1.0  0.66450  0.53591  0.58615  1.0000
  N   N21       1.0  0.70474  0.53700  0.58062  1.0000
  C   C128      1.0  0.72593  0.51189  0.52800  1.0000
  C   C129      1.0  0.70546  0.48353  0.47513  1.0000
  C   C130      1.0  0.66351  0.48182  0.47947  1.0000
  H   H57       1.0  0.64883  0.46018  0.44445  1.0000
  C   C131      1.0  0.76787  0.51191  0.52791  1.0000
  C   C132      1.0  0.85162  0.50753  0.53712  1.0000
  C   C133      1.0  0.83027  0.48186  0.47924  1.0000
  H   H58       1.0  0.65086  0.55553  0.62837  1.0000
  N   N22       1.0  0.78907  0.53704  0.58047  1.0000
  C   C134      1.0  0.78832  0.48357  0.47497  1.0000
  N   N23       1.0  0.76642  0.45775  0.42519  1.0000
  N   N24       1.0  0.72735  0.45774  0.42526  1.0000
  H   H59       1.0  0.84495  0.46021  0.44424  1.0000
  C   C135      1.0  0.82931  0.53597  0.58587  1.0000
  H   H60       1.0  0.84296  0.55558  0.62811  1.0000
  C   C136      1.0  0.49629  0.97887  0.28789  1.0000
  C   C137      1.0  0.49622  0.52038  0.28779  1.0000
  C   C138      1.0  0.50039  0.60300  0.32415  1.0000
  C   C139      1.0  0.49905  0.58858  0.23509  1.0000
  C   C140      1.0  0.49696  0.54763  0.21671  1.0000
  C   C141      1.0  0.49700  0.95155  0.21696  1.0000
  C   C142      1.0  0.49913  0.91062  0.23552  1.0000
  C   C143      1.0  0.50052  0.89628  0.32463  1.0000
  H   H61       1.0  0.60516  0.50242  0.02791  1.0000
  H   H62       1.0  0.53554  0.49930  0.05774  1.0000
  H   H63       1.0  0.95817  0.99928  0.05764  1.0000
  H   H64       1.0  0.88857  0.00240  0.02768  1.0000
  H   H65       1.0  0.49971  0.60788  0.18223  1.0000
  H   H66       1.0  0.49670  0.53821  0.15230  1.0000
  H   H67       1.0  0.49666  0.96089  0.15252  1.0000
  H   H68       1.0  0.49977  0.89128  0.18274  1.0000
  C   C144      1.0  0.03446  0.79067  0.29879  1.0000
  C   C145      1.0  0.03356  0.83237  0.29304  1.0000
  H   H69       1.0  0.05334  0.84638  0.25160  1.0000
  C   C146      1.0  0.50444  0.64468  0.33962  1.0000
  C   C147      1.0  0.53340  0.66691  0.29250  1.0000
  C   C148      1.0  0.53437  0.70861  0.29850  1.0000
  N   N25       1.0  0.56055  0.73020  0.24942  1.0000
  N   N26       1.0  0.06060  0.76908  0.24956  1.0000
  H   H70       1.0  0.55317  0.65291  0.25104  1.0000
  C   C149      1.0  0.49691  0.96544  0.37626  1.0000
  C   C150      1.0  0.49687  0.53389  0.37610  1.0000
  C   C151      1.0  0.49852  0.57508  0.39510  1.0000
  C   C152      1.0  0.49859  0.92426  0.39545  1.0000
  C   C153      1.0  0.53120  0.49967  0.50068  1.0000
  C   C154      1.0  0.51767  0.49897  0.58897  1.0000
  C   C155      1.0  0.97612  0.99901  0.58893  1.0000
  C   C156      1.0  0.96262  0.99967  0.50062  1.0000
  C   C157      1.0  0.94880  0.99967  0.65988  1.0000
  C   C158      1.0  0.90785  0.00183  0.64146  1.0000
  C   C159      1.0  0.89339  0.00336  0.55244  1.0000
  C   C160      1.0  0.92140  0.00146  0.48159  1.0000
  C   C161      1.0  0.57243  0.50140  0.48174  1.0000
  C   C162      1.0  0.60041  0.50333  0.55266  1.0000
  C   C163      1.0  0.58590  0.50183  0.64165  1.0000
  C   C164      1.0  0.54495  0.49966  0.66000  1.0000
  H   H71       1.0  0.91217  0.00300  0.41660  1.0000
  H   H72       1.0  0.58168  0.50301  0.41677  1.0000
  H   H73       1.0  0.49998  0.58435  0.46009  1.0000
  H   H74       1.0  0.50009  0.91505  0.46047  1.0000
  C   C165      1.0  0.49691  0.49968  0.43845  1.0000
  C   C166      1.0  0.00462  0.85461  0.34019  1.0000
  C   C167      1.0  0.97829  0.83330  0.39642  1.0000
  N   N27       1.0  0.97964  0.79284  0.40016  1.0000
  C   C168      1.0  0.00636  0.77067  0.35337  1.0000
  C   C169      1.0  0.50632  0.72859  0.35321  1.0000
  H   H75       1.0  0.95637  0.84773  0.43089  1.0000
  N   N28       1.0  0.47955  0.70643  0.39989  1.0000
  C   C170      1.0  0.47812  0.66597  0.39589  1.0000
  H   H76       1.0  0.45624  0.65154  0.43045  1.0000
  C   C171      1.0  0.64218  0.00748  0.53740  1.0000
  C   C172      1.0  0.66450  0.03591  0.58616  1.0000
  N   N29       1.0  0.70474  0.03700  0.58063  1.0000
  C   C173      1.0  0.72593  0.01189  0.52800  1.0000
  C   C174      1.0  0.70546  0.98353  0.47513  1.0000
  C   C175      1.0  0.66351  0.98182  0.47947  1.0000
  H   H77       1.0  0.64883  0.96018  0.44445  1.0000
  C   C176      1.0  0.76787  0.01191  0.52791  1.0000
  C   C177      1.0  0.85162  0.00753  0.53713  1.0000
  C   C178      1.0  0.83027  0.98186  0.47924  1.0000
  H   H78       1.0  0.65086  0.05553  0.62838  1.0000
  N   N30       1.0  0.78907  0.03704  0.58047  1.0000
  C   C179      1.0  0.78832  0.98357  0.47497  1.0000
  N   N31       1.0  0.76642  0.95776  0.42519  1.0000
  N   N32       1.0  0.72735  0.95774  0.42526  1.0000
  H   H79       1.0  0.84495  0.96022  0.44424  1.0000
  C   C180      1.0  0.82931  0.03597  0.58587  1.0000
  H   H80       1.0  0.84296  0.05558  0.62811  1.0000
