data_image0
_chemical_formula_structural       C3H3C3H3C2H2C3H3C3H3CNCNCNCNCNCNC2H2C2H2C5H3CH3CHCHC3H3C5H3CH3C3H3C5H3CH3C5H3CH3C5H3CH3C2H2C2H2C2H2C2H2C2H2C3H3C5H3CH3C5H3CH3C3H3C5H3CH3C5H3CH3CNCNCNCNCNCNCNCNCNCNCNCNCNCNCNCNCNCNCNCNCNCNCNCNCNCNCNCNCNCNC2H2C2H2C2H2C2H2C5H3CH3C5H3CH3C5H3CH3C5H3CH3C5H3CH3CHC2H2C2H2CHC2H2C2H2
_chemical_formula_sum              "C180 H144 N36"
_cell_length_a       39.3117
_cell_length_b       39.3116
_cell_length_c       14.8161
_cell_angle_alpha    90
_cell_angle_beta     90
_cell_angle_gamma    120

_space_group_name_H-M_alt    "P 1"
_space_group_IT_number       1

loop_
  _space_group_symop_operation_xyz
  'x, y, z'

loop_
  _atom_site_type_symbol
  _atom_site_label
  _atom_site_symmetry_multiplicity
  _atom_site_fract_x
  _atom_site_fract_y
  _atom_site_fract_z
  _atom_site_occupancy
  C   C1        1.0  0.20012  0.46074  0.33510  1.0000
  C   C2        1.0  0.22581  0.47580  0.25894  1.0000
  C   C3        1.0  0.21452  0.49114  0.17835  1.0000
  H   H1        1.0  0.18561  0.48841  0.18294  1.0000
  H   H2        1.0  0.21386  0.47494  0.11798  1.0000
  H   H3        1.0  0.23581  0.52221  0.16859  1.0000
  C   C4        1.0  0.20004  0.76079  0.33495  1.0000
  C   C5        1.0  0.22575  0.77145  0.25883  1.0000
  C   C6        1.0  0.21445  0.74486  0.17817  1.0000
  H   H4        1.0  0.18554  0.71868  0.18270  1.0000
  H   H5        1.0  0.23574  0.73507  0.16834  1.0000
  H   H6        1.0  0.21381  0.76043  0.11785  1.0000
  C   C7        1.0  0.12751  0.59221  0.29353  1.0000
  C   C8        1.0  0.12750  0.55666  0.29361  1.0000
  H   H7        1.0  0.11248  0.53691  0.24309  1.0000
  H   H8        1.0  0.11250  0.59691  0.24295  1.0000
  C   C9        1.0  0.05754  0.41078  0.34122  1.0000
  C   C10       1.0  0.03655  0.40473  0.25850  1.0000
  C   C11       1.0  0.05851  0.42166  0.17211  1.0000
  H   H9        1.0  0.09034  0.43609  0.17877  1.0000
  H   H10       1.0  0.05156  0.44339  0.14557  1.0000
  H   H11       1.0  0.05026  0.39842  0.12225  1.0000
  C   C12       1.0  0.05747  0.66806  0.34106  1.0000
  C   C13       1.0  0.03655  0.65328  0.25817  1.0000
  C   C14       1.0  0.05852  0.65838  0.17178  1.0000
  H   H12       1.0  0.09036  0.67574  0.17848  1.0000
  H   H13       1.0  0.05032  0.67346  0.12204  1.0000
  H   H14       1.0  0.05155  0.62972  0.14503  1.0000
  C   C15       1.0  0.09760  0.44046  0.35098  1.0000
  N   N1        1.0  0.12888  0.43442  0.34492  1.0000
  C   C16       1.0  0.16658  0.46533  0.34660  1.0000
  N   N2        1.0  0.17231  0.50245  0.35269  1.0000
  C   C17       1.0  0.14174  0.50929  0.35925  1.0000
  N   N3        1.0  0.10479  0.47792  0.35665  1.0000
  C   C18       1.0  0.09755  0.67847  0.35057  1.0000
  N   N4        1.0  0.12880  0.71581  0.34469  1.0000
  C   C19       1.0  0.16652  0.72264  0.34644  1.0000
  N   N5        1.0  0.17228  0.69127  0.35248  1.0000
  C   C20       1.0  0.14174  0.65385  0.35896  1.0000
  N   N6        1.0  0.10477  0.64822  0.35634  1.0000
  C   C21       1.0  0.24636  0.44442  0.40725  1.0000
  C   C22       1.0  0.21060  0.44443  0.40734  1.0000
  H   H15       1.0  0.19313  0.43421  0.46359  1.0000
  H   H16       1.0  0.25365  0.43421  0.46344  1.0000
  C   C23       1.0  0.21053  0.78753  0.40733  1.0000
  C   C24       1.0  0.24631  0.82328  0.40734  1.0000
  H   H17       1.0  0.25360  0.84075  0.46359  1.0000
  H   H18       1.0  0.19307  0.78024  0.46359  1.0000
  C   C25       1.0  0.14687  0.62051  0.36168  1.0000
  C   C26       1.0  0.14683  0.54774  0.36188  1.0000
  C   C27       1.0  0.16726  0.57603  0.43126  1.0000
  C   C28       1.0  0.16727  0.61267  0.43118  1.0000
  C   C29       1.0  0.18673  0.56693  0.50715  1.0000
  H   H19       1.0  0.18432  0.53818  0.50333  1.0000
  H   H20       1.0  0.17360  0.56769  0.57143  1.0000
  H   H21       1.0  0.21801  0.58860  0.50858  1.0000
  C   C30       1.0  0.18672  0.64127  0.50703  1.0000
  H   H22       1.0  0.18432  0.66760  0.50310  1.0000
  H   H23       1.0  0.21799  0.65087  0.50854  1.0000
  H   H24       1.0  0.17356  0.62740  0.57132  1.0000
  C   C31       1.0  0.03611  0.39501  0.42159  1.0000
  H   H25       1.0  0.05035  0.40094  0.48252  1.0000
  C   C32       1.0  0.03601  0.66242  0.42135  1.0000
  H   H26       1.0  0.05024  0.67068  0.48229  1.0000
  C   C33       1.0  0.27309  0.46071  0.33488  1.0000
  C   C34       1.0  0.26242  0.47580  0.25884  1.0000
  C   C35       1.0  0.28901  0.49115  0.17819  1.0000
  H   H27       1.0  0.31520  0.48843  0.18264  1.0000
  H   H28       1.0  0.29878  0.52223  0.16846  1.0000
  H   H29       1.0  0.27343  0.47496  0.11784  1.0000
  C   C36       1.0  0.57322  0.83383  0.33503  1.0000
  C   C37       1.0  0.57321  0.76084  0.33507  1.0000
  C   C38       1.0  0.55812  0.77148  0.25898  1.0000
  C   C39       1.0  0.55811  0.80808  0.25898  1.0000
  C   C40       1.0  0.54276  0.74486  0.17839  1.0000
  H   H30       1.0  0.54549  0.71868  0.18290  1.0000
  H   H31       1.0  0.55894  0.76041  0.11801  1.0000
  H   H32       1.0  0.51168  0.73508  0.16867  1.0000
  C   C41       1.0  0.54275  0.81934  0.17838  1.0000
  H   H33       1.0  0.54549  0.84826  0.18290  1.0000
  H   H34       1.0  0.51167  0.79805  0.16868  1.0000
  H   H35       1.0  0.55893  0.81997  0.11800  1.0000
  C   C42       1.0  0.27304  0.83375  0.33498  1.0000
  C   C43       1.0  0.26236  0.80805  0.25883  1.0000
  C   C44       1.0  0.28896  0.81933  0.17817  1.0000
  H   H36       1.0  0.31516  0.84823  0.18271  1.0000
  H   H37       1.0  0.27339  0.81999  0.11786  1.0000
  H   H38       1.0  0.29871  0.79801  0.16833  1.0000
  C   C45       1.0  0.75778  0.57614  0.33503  1.0000
  C   C46       1.0  0.83075  0.57613  0.33510  1.0000
  C   C47       1.0  0.80507  0.56112  0.25892  1.0000
  C   C48       1.0  0.76846  0.56111  0.25890  1.0000
  C   C49       1.0  0.81637  0.54583  0.17825  1.0000
  H   H39       1.0  0.84528  0.54855  0.18281  1.0000
  H   H40       1.0  0.81704  0.56208  0.11795  1.0000
  H   H41       1.0  0.79508  0.51477  0.16837  1.0000
  C   C50       1.0  0.74188  0.54582  0.17821  1.0000
  H   H42       1.0  0.71569  0.54854  0.18274  1.0000
  H   H43       1.0  0.73212  0.51476  0.16836  1.0000
  H   H44       1.0  0.75746  0.56206  0.11791  1.0000
  C   C51       1.0  0.45767  0.20302  0.33488  1.0000
  C   C52       1.0  0.45767  0.27601  0.33506  1.0000
  C   C53       1.0  0.47273  0.26537  0.25890  1.0000
  C   C54       1.0  0.47274  0.22877  0.25882  1.0000
  C   C55       1.0  0.48805  0.29200  0.17831  1.0000
  H   H45       1.0  0.48532  0.31818  0.18290  1.0000
  H   H46       1.0  0.47185  0.27645  0.11795  1.0000
  H   H47       1.0  0.51913  0.30178  0.16852  1.0000
  C   C56       1.0  0.48807  0.21752  0.17815  1.0000
  H   H48       1.0  0.48536  0.18862  0.18262  1.0000
  H   H49       1.0  0.51914  0.23883  0.16839  1.0000
  H   H50       1.0  0.47187  0.21690  0.11782  1.0000
  C   C57       1.0  0.83080  0.27605  0.33503  1.0000
  C   C58       1.0  0.75782  0.20307  0.33502  1.0000
  C   C59       1.0  0.76846  0.22881  0.25896  1.0000
  C   C60       1.0  0.80506  0.26542  0.25897  1.0000
  C   C61       1.0  0.74184  0.21756  0.17836  1.0000
  H   H51       1.0  0.71567  0.18864  0.18286  1.0000
  H   H52       1.0  0.75739  0.21695  0.11797  1.0000
  H   H53       1.0  0.73206  0.23885  0.16868  1.0000
  C   C62       1.0  0.81632  0.29205  0.17839  1.0000
  H   H54       1.0  0.84523  0.31824  0.18291  1.0000
  H   H55       1.0  0.79502  0.30183  0.16871  1.0000
  H   H56       1.0  0.81694  0.27651  0.11799  1.0000
  C   C63       1.0  0.44167  0.55676  0.29349  1.0000
  C   C64       1.0  0.47723  0.59230  0.29357  1.0000
  H   H57       1.0  0.49698  0.59702  0.24305  1.0000
  H   H58       1.0  0.43697  0.53704  0.24293  1.0000
  C   C65       1.0  0.47717  0.90633  0.29359  1.0000
  C   C66       1.0  0.44163  0.90634  0.29356  1.0000
  H   H59       1.0  0.43692  0.92137  0.24301  1.0000
  H   H60       1.0  0.49691  0.92136  0.24306  1.0000
  C   C67       1.0  0.90335  0.44460  0.29359  1.0000
  C   C68       1.0  0.90336  0.48016  0.29356  1.0000
  H   H61       1.0  0.91838  0.49988  0.24299  1.0000
  H   H62       1.0  0.91836  0.43987  0.24306  1.0000
  C   C69       1.0  0.58919  0.48008  0.29350  1.0000
  C   C70       1.0  0.55364  0.44455  0.29359  1.0000
  H   H63       1.0  0.53389  0.43982  0.24307  1.0000
  H   H64       1.0  0.59390  0.49980  0.24292  1.0000
  C   C71       1.0  0.55374  0.13052  0.29344  1.0000
  C   C72       1.0  0.58928  0.13051  0.29349  1.0000
  H   H65       1.0  0.59401  0.11550  0.24296  1.0000
  H   H66       1.0  0.53401  0.11550  0.24287  1.0000
  C   C73       1.0  0.97336  0.36879  0.34142  1.0000
  C   C74       1.0  0.99431  0.38364  0.25858  1.0000
  C   C75       1.0  0.97232  0.37859  0.17223  1.0000
  H   H67       1.0  0.94049  0.36124  0.17895  1.0000
  H   H68       1.0  0.98051  0.36354  0.12240  1.0000
  H   H69       1.0  0.97930  0.40727  0.14561  1.0000
  C   C76       1.0  0.62310  0.66815  0.34118  1.0000
  C   C77       1.0  0.66504  0.62596  0.34111  1.0000
  C   C78       1.0  0.65017  0.63207  0.25831  1.0000
  C   C79       1.0  0.62909  0.65323  0.25836  1.0000
  C   C80       1.0  0.65517  0.61513  0.17190  1.0000
  H   H70       1.0  0.67253  0.60066  0.17850  1.0000
  H   H71       1.0  0.67019  0.63839  0.12206  1.0000
  H   H72       1.0  0.62648  0.59344  0.14532  1.0000
  C   C81       1.0  0.61213  0.65828  0.17205  1.0000
  H   H73       1.0  0.59770  0.67568  0.17880  1.0000
  H   H74       1.0  0.59037  0.62960  0.14551  1.0000
  H   H75       1.0  0.63535  0.67327  0.12214  1.0000
  C   C82       1.0  0.36570  0.97633  0.34100  1.0000
  C   C83       1.0  0.40786  0.06046  0.34107  1.0000
  C   C84       1.0  0.40168  0.03951  0.25820  1.0000
  C   C85       1.0  0.38054  0.99727  0.25818  1.0000
  C   C86       1.0  0.41854  0.06148  0.17178  1.0000
  H   H76       1.0  0.43302  0.09331  0.17845  1.0000
  H   H77       1.0  0.39524  0.05327  0.12207  1.0000
  H   H78       1.0  0.44021  0.05450  0.14501  1.0000
  C   C87       1.0  0.37542  0.97529  0.17179  1.0000
  H   H79       1.0  0.35803  0.94346  0.17848  1.0000
  H   H80       1.0  0.40407  0.98223  0.14506  1.0000
  H   H81       1.0  0.36037  0.98353  0.12203  1.0000
  C   C88       1.0  0.97334  0.62609  0.34090  1.0000
  C   C89       1.0  0.99430  0.63218  0.25811  1.0000
  C   C90       1.0  0.97234  0.61532  0.17170  1.0000
  H   H82       1.0  0.94051  0.60088  0.17837  1.0000
  H   H83       1.0  0.97928  0.59360  0.14503  1.0000
  H   H84       1.0  0.98058  0.63859  0.12193  1.0000
  C   C91       1.0  0.40775  0.36866  0.34114  1.0000
  C   C92       1.0  0.36583  0.41089  0.34113  1.0000
  C   C93       1.0  0.38062  0.40471  0.25829  1.0000
  C   C94       1.0  0.40169  0.38354  0.25834  1.0000
  C   C95       1.0  0.37555  0.42158  0.17186  1.0000
  H   H85       1.0  0.35821  0.43608  0.17848  1.0000
  H   H86       1.0  0.36047  0.39830  0.12213  1.0000
  H   H87       1.0  0.40422  0.44325  0.14514  1.0000
  C   C96       1.0  0.41858  0.37843  0.17199  1.0000
  H   H88       1.0  0.43300  0.36102  0.17874  1.0000
  H   H89       1.0  0.44032  0.40708  0.14532  1.0000
  H   H90       1.0  0.39532  0.36340  0.12218  1.0000
  C   C97       1.0  0.66513  0.06050  0.34121  1.0000
  C   C98       1.0  0.62301  0.97639  0.34135  1.0000
  C   C99       1.0  0.62900  0.99730  0.25852  1.0000
  C   C100      1.0  0.65014  0.03954  0.25846  1.0000
  C   C101      1.0  0.61199  0.97531  0.17221  1.0000
  H   H91       1.0  0.59753  0.94348  0.17891  1.0000
  H   H92       1.0  0.63519  0.98351  0.12225  1.0000
  H   H93       1.0  0.59026  0.98228  0.14573  1.0000
  C   C102      1.0  0.65511  0.06150  0.17213  1.0000
  H   H94       1.0  0.67251  0.09333  0.17878  1.0000
  H   H95       1.0  0.62641  0.05456  0.14571  1.0000
  H   H96       1.0  0.67006  0.05326  0.12215  1.0000
  C   C103      1.0  0.59343  0.67856  0.35102  1.0000
  N   N7        1.0  0.59950  0.71588  0.34490  1.0000
  C   C104      1.0  0.56859  0.72269  0.34656  1.0000
  N   N8        1.0  0.53147  0.69132  0.35264  1.0000
  C   C105      1.0  0.52461  0.65390  0.35920  1.0000
  N   N9        1.0  0.55597  0.64829  0.35664  1.0000
  C   C106      1.0  0.35532  0.93626  0.35065  1.0000
  N   N10       1.0  0.31800  0.90499  0.34469  1.0000
  C   C107      1.0  0.31119  0.86728  0.34638  1.0000
  N   N11       1.0  0.34257  0.86154  0.35250  1.0000
  C   C108      1.0  0.37999  0.89210  0.35902  1.0000
  N   N12       1.0  0.38559  0.92906  0.35640  1.0000
  C   C109      1.0  0.93327  0.59638  0.35053  1.0000
  N   N13       1.0  0.90201  0.60244  0.34469  1.0000
  C   C110      1.0  0.86430  0.57153  0.34651  1.0000
  N   N14       1.0  0.85857  0.53442  0.35258  1.0000
  C   C111      1.0  0.88914  0.52757  0.35900  1.0000
  N   N15       1.0  0.92609  0.55893  0.35631  1.0000
  C   C112      1.0  0.43743  0.35827  0.35096  1.0000
  N   N16       1.0  0.43138  0.32095  0.34489  1.0000
  C   C113      1.0  0.46228  0.31414  0.34660  1.0000
  N   N17       1.0  0.49940  0.34553  0.35269  1.0000
  C   C114      1.0  0.50625  0.38294  0.35924  1.0000
  N   N18       1.0  0.47489  0.38854  0.35664  1.0000
  C   C115      1.0  0.67554  0.10057  0.35098  1.0000
  N   N19       1.0  0.71286  0.13183  0.34488  1.0000
  C   C116      1.0  0.71968  0.16954  0.34650  1.0000
  N   N20       1.0  0.68830  0.17529  0.35256  1.0000
  C   C117      1.0  0.65089  0.14474  0.35911  1.0000
  N   N21       1.0  0.64527  0.10778  0.35658  1.0000
  C   C118      1.0  0.43753  0.10054  0.35053  1.0000
  N   N22       1.0  0.43142  0.13178  0.34462  1.0000
  C   C119      1.0  0.46231  0.16950  0.34628  1.0000
  N   N23       1.0  0.49944  0.17527  0.35238  1.0000
  C   C120      1.0  0.50633  0.14473  0.35892  1.0000
  N   N24       1.0  0.47499  0.10776  0.35630  1.0000
  C   C121      1.0  0.67545  0.59630  0.35057  1.0000
  N   N25       1.0  0.71279  0.60239  0.34474  1.0000
  C   C122      1.0  0.71962  0.57150  0.34647  1.0000
  N   N26       1.0  0.68825  0.53437  0.35248  1.0000
  C   C123      1.0  0.65083  0.52749  0.35893  1.0000
  N   N27       1.0  0.64520  0.55883  0.35632  1.0000
  C   C124      1.0  0.93329  0.35836  0.35111  1.0000
  N   N28       1.0  0.90204  0.32103  0.34497  1.0000
  C   C125      1.0  0.86432  0.31421  0.34656  1.0000
  N   N29       1.0  0.85857  0.34558  0.35262  1.0000
  C   C126      1.0  0.88911  0.38300  0.35921  1.0000
  N   N30       1.0  0.92608  0.38861  0.35672  1.0000
  C   C127      1.0  0.59336  0.93630  0.35107  1.0000
  N   N31       1.0  0.59945  0.90506  0.34496  1.0000
  C   C128      1.0  0.56857  0.86734  0.34658  1.0000
  N   N32       1.0  0.53144  0.86157  0.35262  1.0000
  C   C129      1.0  0.52455  0.89211  0.35919  1.0000
  N   N33       1.0  0.55589  0.92908  0.35669  1.0000
  C   C130      1.0  0.35542  0.44056  0.35055  1.0000
  N   N34       1.0  0.31808  0.43446  0.34464  1.0000
  C   C131      1.0  0.31125  0.46535  0.34629  1.0000
  N   N35       1.0  0.34261  0.50248  0.35238  1.0000
  C   C132      1.0  0.38004  0.50936  0.35895  1.0000
  N   N36       1.0  0.38567  0.47802  0.35634  1.0000
  C   C133      1.0  0.58950  0.82337  0.40736  1.0000
  C   C134      1.0  0.58950  0.78760  0.40738  1.0000
  H   H97       1.0  0.59971  0.78033  0.46361  1.0000
  H   H98       1.0  0.59971  0.84084  0.46360  1.0000
  C   C135      1.0  0.78450  0.59238  0.40743  1.0000
  C   C136      1.0  0.82026  0.59237  0.40746  1.0000
  H   H99       1.0  0.83772  0.60255  0.46372  1.0000
  H   H100      1.0  0.77720  0.60254  0.46369  1.0000
  C   C137      1.0  0.44140  0.21347  0.40727  1.0000
  C   C138      1.0  0.44140  0.24923  0.40736  1.0000
  H   H101      1.0  0.43120  0.25649  0.46363  1.0000
  H   H102      1.0  0.43121  0.19598  0.46350  1.0000
  C   C139      1.0  0.82036  0.24929  0.40731  1.0000
  C   C140      1.0  0.78460  0.21352  0.40730  1.0000
  H   H103      1.0  0.77733  0.19603  0.46350  1.0000
  H   H104      1.0  0.83784  0.25655  0.46353  1.0000
  C   C141      1.0  0.41337  0.54783  0.36162  1.0000
  C   C142      1.0  0.48615  0.62055  0.36181  1.0000
  C   C143      1.0  0.45787  0.61270  0.43122  1.0000
  C   C144      1.0  0.42122  0.57607  0.43113  1.0000
  C   C145      1.0  0.46699  0.64126  0.50711  1.0000
  H   H105      1.0  0.49573  0.66759  0.50330  1.0000
  H   H106      1.0  0.46622  0.62737  0.57139  1.0000
  H   H107      1.0  0.44532  0.65088  0.50856  1.0000
  C   C146      1.0  0.39263  0.56693  0.50698  1.0000
  H   H108      1.0  0.36628  0.53820  0.50304  1.0000
  H   H109      1.0  0.38305  0.58863  0.50852  1.0000
  H   H110      1.0  0.40649  0.56762  0.57127  1.0000
  C   C147      1.0  0.48608  0.88697  0.36178  1.0000
  C   C148      1.0  0.41334  0.88700  0.36174  1.0000
  C   C149      1.0  0.42117  0.86657  0.43119  1.0000
  C   C150      1.0  0.45780  0.86656  0.43120  1.0000
  C   C151      1.0  0.39258  0.84712  0.50704  1.0000
  H   H111      1.0  0.36626  0.84954  0.50317  1.0000
  H   H112      1.0  0.40646  0.86024  0.57134  1.0000
  H   H113      1.0  0.38296  0.81583  0.50848  1.0000
  C   C152      1.0  0.46691  0.84709  0.50709  1.0000
  H   H114      1.0  0.49564  0.84946  0.50320  1.0000
  H   H115      1.0  0.44521  0.81582  0.50858  1.0000
  H   H116      1.0  0.46620  0.86025  0.57137  1.0000
  C   C153      1.0  0.88398  0.41634  0.36180  1.0000
  C   C154      1.0  0.88404  0.48911  0.36176  1.0000
  C   C155      1.0  0.86361  0.46086  0.43122  1.0000
  C   C156      1.0  0.86358  0.42421  0.43124  1.0000
  C   C157      1.0  0.84418  0.47001  0.50709  1.0000
  H   H117      1.0  0.84662  0.49877  0.50324  1.0000
  H   H118      1.0  0.85730  0.46924  0.57139  1.0000
  H   H119      1.0  0.81288  0.44836  0.50854  1.0000
  C   C158      1.0  0.84411  0.39563  0.50712  1.0000
  H   H120      1.0  0.84647  0.36927  0.50322  1.0000
  H   H121      1.0  0.81285  0.38608  0.50863  1.0000
  H   H122      1.0  0.85728  0.40950  0.57139  1.0000
  C   C159      1.0  0.61749  0.48902  0.36166  1.0000
  C   C160      1.0  0.54471  0.41630  0.36186  1.0000
  C   C161      1.0  0.57300  0.42415  0.43125  1.0000
  C   C162      1.0  0.60964  0.46078  0.43116  1.0000
  C   C163      1.0  0.56389  0.39558  0.50715  1.0000
  H   H123      1.0  0.53514  0.36925  0.50333  1.0000
  H   H124      1.0  0.56465  0.40948  0.57143  1.0000
  H   H125      1.0  0.58556  0.38598  0.50858  1.0000
  C   C164      1.0  0.63824  0.46993  0.50702  1.0000
  H   H126      1.0  0.66458  0.49866  0.50309  1.0000
  H   H127      1.0  0.64783  0.44824  0.50854  1.0000
  H   H128      1.0  0.62437  0.46923  0.57131  1.0000
  C   C165      1.0  0.54480  0.14988  0.36159  1.0000
  C   C166      1.0  0.61755  0.14987  0.36170  1.0000
  C   C167      1.0  0.60967  0.17025  0.43116  1.0000
  C   C168      1.0  0.57303  0.17025  0.43111  1.0000
  C   C169      1.0  0.63823  0.18969  0.50708  1.0000
  H   H129      1.0  0.66457  0.18730  0.50322  1.0000
  H   H130      1.0  0.62434  0.17653  0.57134  1.0000
  H   H131      1.0  0.64782  0.22097  0.50860  1.0000
  C   C170      1.0  0.56388  0.18968  0.50700  1.0000
  H   H132      1.0  0.53515  0.18729  0.50308  1.0000
  H   H133      1.0  0.58556  0.22096  0.50856  1.0000
  H   H134      1.0  0.56458  0.17650  0.57127  1.0000
  C   C171      1.0  0.99486  0.37442  0.42167  1.0000
  H   H135      1.0  0.98065  0.36613  0.48263  1.0000
  C   C172      1.0  0.63894  0.66253  0.42148  1.0000
  C   C173      1.0  0.65951  0.64186  0.42142  1.0000
  H   H136      1.0  0.66785  0.63593  0.48232  1.0000
  H   H137      1.0  0.63306  0.67087  0.48244  1.0000
  C   C174      1.0  0.37140  0.99776  0.42138  1.0000
  C   C175      1.0  0.39206  0.03901  0.42139  1.0000
  H   H138      1.0  0.39804  0.05325  0.48233  1.0000
  H   H139      1.0  0.36314  0.98352  0.48232  1.0000
  C   C176      1.0  0.99475  0.64183  0.42129  1.0000
  H   H140      1.0  0.98051  0.63586  0.48223  1.0000
  C   C177      1.0  0.39202  0.37440  0.42148  1.0000
  C   C178      1.0  0.37145  0.39507  0.42146  1.0000
  H   H141      1.0  0.36318  0.40106  0.48238  1.0000
  H   H142      1.0  0.39796  0.36612  0.48245  1.0000
  C   C179      1.0  0.65959  0.03909  0.42156  1.0000
  C   C180      1.0  0.63894  0.99783  0.42162  1.0000
  H   H143      1.0  0.63308  0.98361  0.48255  1.0000
  H   H144      1.0  0.66797  0.05333  0.48247  1.0000
