data_image0
_chemical_formula_structural       C3H2C2NCNH2C2NCNH2C2NCNH2NCHNCHNCHC21H13C24H15C24H15C24H15NCHNCHNCHC2NCNH2C2NCNH2C2NCNH2
_chemical_formula_sum              "C120 H78 N18"
_cell_length_a       45.6355
_cell_length_b       45.6355
_cell_length_c       14.9593
_cell_angle_alpha    90
_cell_angle_beta     90
_cell_angle_gamma    120

_space_group_name_H-M_alt    "P 1"
_space_group_IT_number       1

loop_
  _space_group_symop_operation_xyz
  'x, y, z'

loop_
  _atom_site_type_symbol
  _atom_site_label
  _atom_site_symmetry_multiplicity
  _atom_site_fract_x
  _atom_site_fract_y
  _atom_site_fract_z
  _atom_site_occupancy
  C   C1        1.0  0.01189  0.03269  0.34079  1.0000
  C   C2        1.0  0.03026  0.01526  0.34240  1.0000
  C   C3        1.0  0.01183  0.97946  0.34429  1.0000
  H   H1        1.0  0.02487  0.05862  0.34173  1.0000
  H   H2        1.0  0.02476  0.96647  0.34236  1.0000
  C   C4        1.0  0.24632  0.12394  0.31896  1.0000
  C   C5        1.0  0.17532  0.08745  0.33368  1.0000
  N   N1        1.0  0.19145  0.10032  0.25461  1.0000
  C   C6        1.0  0.22559  0.11813  0.24257  1.0000
  N   N2        1.0  0.23712  0.13012  0.15943  1.0000
  H   H3        1.0  0.26100  0.14497  0.14728  1.0000
  H   H4        1.0  0.22132  0.12588  0.11078  1.0000
  C   C7        1.0  0.86695  0.12221  0.31839  1.0000
  C   C8        1.0  0.90296  0.08717  0.33458  1.0000
  N   N3        1.0  0.89804  0.09824  0.25457  1.0000
  C   C9        1.0  0.88075  0.11505  0.24170  1.0000
  N   N4        1.0  0.87671  0.12206  0.15607  1.0000
  H   H5        1.0  0.86170  0.13060  0.14078  1.0000
  H   H6        1.0  0.88584  0.11509  0.10693  1.0000
  C   C10       1.0  0.86887  0.74514  0.31449  1.0000
  C   C11       1.0  0.90415  0.81616  0.33200  1.0000
  N   N5        1.0  0.89300  0.80040  0.25173  1.0000
  C   C12       1.0  0.87606  0.76631  0.23824  1.0000
  N   N6        1.0  0.86898  0.75547  0.15246  1.0000
  H   H7        1.0  0.86062  0.73198  0.13676  1.0000
  H   H8        1.0  0.87624  0.77174  0.10366  1.0000
  N   N7        1.0  0.59132  0.15739  0.27078  1.0000
  C   C13       1.0  0.56146  0.15675  0.26131  1.0000
  H   H9        1.0  0.55679  0.16516  0.20271  1.0000
  N   N8        1.0  0.83355  0.43424  0.27239  1.0000
  C   C14       1.0  0.83413  0.40497  0.26370  1.0000
  H   H10       1.0  0.82576  0.39177  0.20525  1.0000
  N   N9        1.0  0.55648  0.39956  0.27379  1.0000
  C   C15       1.0  0.58574  0.42941  0.26459  1.0000
  H   H11       1.0  0.59869  0.43430  0.20569  1.0000
  C   C16       1.0  0.97609  0.01533  0.34172  1.0000
  C   C17       1.0  0.97603  0.96110  0.34360  1.0000
  C   C18       1.0  0.95865  0.97953  0.34277  1.0000
  C   C19       1.0  0.06643  0.03331  0.34093  1.0000
  C   C20       1.0  0.08453  0.05958  0.27850  1.0000
  C   C21       1.0  0.12013  0.07706  0.27614  1.0000
  C   C22       1.0  0.13916  0.06945  0.33707  1.0000
  C   C23       1.0  0.12094  0.04317  0.39960  1.0000
  C   C24       1.0  0.08531  0.02533  0.40116  1.0000
  C   C25       1.0  0.95803  0.03343  0.34091  1.0000
  C   C26       1.0  0.96613  0.05977  0.27876  1.0000
  C   C27       1.0  0.94794  0.07719  0.27685  1.0000
  C   C28       1.0  0.92141  0.06950  0.33817  1.0000
  C   C29       1.0  0.91350  0.04326  0.40068  1.0000
  C   C30       1.0  0.93130  0.02544  0.40166  1.0000
  C   C31       1.0  0.95792  0.92495  0.34178  1.0000
  C   C32       1.0  0.93175  0.90699  0.27899  1.0000
  C   C33       1.0  0.91434  0.87139  0.27588  1.0000
  C   C34       1.0  0.92192  0.85227  0.33649  1.0000
  C   C35       1.0  0.94808  0.87032  0.39945  1.0000
  C   C36       1.0  0.96589  0.90594  0.40164  1.0000
  H   H12       1.0  0.95468  0.09599  0.23049  1.0000
  H   H13       1.0  0.98494  0.06603  0.23269  1.0000
  H   H14       1.0  0.89402  0.03615  0.44498  1.0000
  H   H15       1.0  0.92475  0.00670  0.44812  1.0000
  H   H16       1.0  0.92555  0.91974  0.23342  1.0000
  H   H17       1.0  0.89561  0.85955  0.22922  1.0000
  H   H18       1.0  0.98457  0.91792  0.44838  1.0000
  H   H19       1.0  0.95514  0.85775  0.44321  1.0000
  H   H20       1.0  0.07324  0.00663  0.44778  1.0000
  H   H21       1.0  0.13338  0.03608  0.44370  1.0000
  H   H22       1.0  0.13205  0.09589  0.22977  1.0000
  H   H23       1.0  0.07188  0.06584  0.23273  1.0000
  H   H24       1.0  0.93273  0.96659  0.34243  1.0000
  C   C37       1.0  0.44563  0.24792  0.33957  1.0000
  C   C38       1.0  0.41003  0.23044  0.33068  1.0000
  C   C39       1.0  0.39102  0.19460  0.32495  1.0000
  C   C40       1.0  0.40876  0.17643  0.32596  1.0000
  C   C41       1.0  0.44430  0.19330  0.33478  1.0000
  C   C42       1.0  0.46229  0.22889  0.34105  1.0000
  C   C43       1.0  0.35482  0.17714  0.32206  1.0000
  C   C44       1.0  0.33616  0.18609  0.38059  1.0000
  C   C45       1.0  0.30055  0.16855  0.37948  1.0000
  C   C46       1.0  0.28229  0.14175  0.31869  1.0000
  C   C47       1.0  0.30076  0.13235  0.26108  1.0000
  C   C48       1.0  0.33639  0.14977  0.26269  1.0000
  C   C49       1.0  0.46505  0.28376  0.34843  1.0000
  C   C50       1.0  0.46412  0.30548  0.28248  1.0000
  C   C51       1.0  0.48734  0.34054  0.28474  1.0000
  C   C52       1.0  0.51149  0.35497  0.35422  1.0000
  C   C53       1.0  0.51179  0.33323  0.42112  1.0000
  C   C54       1.0  0.48884  0.29829  0.41860  1.0000
  C   C55       1.0  0.46261  0.17578  0.33979  1.0000
  C   C56       1.0  0.48159  0.17880  0.41731  1.0000
  C   C57       1.0  0.50558  0.16808  0.41701  1.0000
  C   C58       1.0  0.51189  0.15460  0.33881  1.0000
  C   C59       1.0  0.49165  0.15023  0.26257  1.0000
  C   C60       1.0  0.46726  0.16056  0.26302  1.0000
  H   H25       1.0  0.48715  0.35535  0.23361  1.0000
  H   H26       1.0  0.44808  0.29568  0.22901  1.0000
  H   H27       1.0  0.52998  0.34229  0.46986  1.0000
  H   H28       1.0  0.49066  0.28330  0.46669  1.0000
  H   H29       1.0  0.47955  0.19070  0.47305  1.0000
  H   H30       1.0  0.52018  0.17267  0.47295  1.0000
  H   H31       1.0  0.45473  0.15914  0.20494  1.0000
  H   H32       1.0  0.49539  0.14069  0.20455  1.0000
  H   H33       1.0  0.34880  0.14243  0.21910  1.0000
  H   H34       1.0  0.28838  0.11247  0.21787  1.0000
  H   H35       1.0  0.28804  0.17582  0.42298  1.0000
  H   H36       1.0  0.34835  0.20511  0.42631  1.0000
  H   H37       1.0  0.39778  0.24409  0.32984  1.0000
  H   H38       1.0  0.48818  0.24124  0.34599  1.0000
  H   H39       1.0  0.39564  0.15052  0.32433  1.0000
  C   C61       1.0  0.74300  0.19838  0.33941  1.0000
  C   C62       1.0  0.76049  0.18027  0.33014  1.0000
  C   C63       1.0  0.79641  0.19692  0.32734  1.0000
  C   C64       1.0  0.81453  0.23284  0.33105  1.0000
  C   C65       1.0  0.79768  0.25156  0.33895  1.0000
  C   C66       1.0  0.76206  0.23403  0.34289  1.0000
  C   C67       1.0  0.81390  0.17808  0.32375  1.0000
  C   C68       1.0  0.80225  0.14761  0.37261  1.0000
  C   C69       1.0  0.81956  0.12931  0.37023  1.0000
  C   C70       1.0  0.84923  0.14059  0.31853  1.0000
  C   C71       1.0  0.86154  0.17149  0.27181  1.0000
  C   C72       1.0  0.84402  0.18960  0.27348  1.0000
  C   C73       1.0  0.70710  0.18198  0.34694  1.0000
  C   C74       1.0  0.68562  0.15946  0.28042  1.0000
  C   C75       1.0  0.65053  0.14752  0.28203  1.0000
  C   C76       1.0  0.63580  0.15691  0.35150  1.0000
  C   C77       1.0  0.65733  0.17886  0.41888  1.0000
  C   C78       1.0  0.69228  0.19093  0.41708  1.0000
  C   C79       1.0  0.81523  0.28738  0.34412  1.0000
  C   C80       1.0  0.81189  0.30337  0.42112  1.0000
  C   C81       1.0  0.82267  0.33810  0.42050  1.0000
  C   C82       1.0  0.83637  0.35781  0.34226  1.0000
  C   C83       1.0  0.84097  0.34189  0.26651  1.0000
  C   C84       1.0  0.83065  0.30718  0.26739  1.0000
  H   H40       1.0  0.63588  0.13257  0.23061  1.0000
  H   H41       1.0  0.69561  0.15339  0.22708  1.0000
  H   H42       1.0  0.64807  0.18777  0.46766  1.0000
  H   H43       1.0  0.70707  0.20760  0.46567  1.0000
  H   H44       1.0  0.79975  0.28945  0.47669  1.0000
  H   H45       1.0  0.81777  0.34812  0.47591  1.0000
  H   H46       1.0  0.83231  0.29605  0.20964  1.0000
  H   H47       1.0  0.85069  0.35513  0.20851  1.0000
  H   H48       1.0  0.85357  0.21136  0.23670  1.0000
  H   H49       1.0  0.88367  0.18136  0.23650  1.0000
  H   H50       1.0  0.81004  0.10739  0.40644  1.0000
  H   H51       1.0  0.78129  0.13867  0.41245  1.0000
  H   H52       1.0  0.74666  0.15442  0.32692  1.0000
  H   H53       1.0  0.74974  0.24760  0.34745  1.0000
  H   H54       1.0  0.84043  0.24572  0.33165  1.0000
  C   C85       1.0  0.79251  0.54505  0.33745  1.0000
  C   C86       1.0  0.81062  0.58060  0.32716  1.0000
  C   C87       1.0  0.79400  0.59989  0.32385  1.0000
  C   C88       1.0  0.75809  0.58214  0.32801  1.0000
  C   C89       1.0  0.73935  0.54661  0.33696  1.0000
  C   C90       1.0  0.75687  0.52852  0.34141  1.0000
  C   C91       1.0  0.81291  0.63622  0.31975  1.0000
  C   C92       1.0  0.84338  0.65503  0.36857  1.0000
  C   C93       1.0  0.86173  0.69062  0.36599  1.0000
  C   C94       1.0  0.85050  0.70904  0.31419  1.0000
  C   C95       1.0  0.81963  0.69045  0.26734  1.0000
  C   C96       1.0  0.80146  0.65482  0.26923  1.0000
  C   C97       1.0  0.80892  0.52559  0.34565  1.0000
  C   C98       1.0  0.83134  0.52635  0.27923  1.0000
  C   C99       1.0  0.84337  0.50329  0.28173  1.0000
  C   C100      1.0  0.83406  0.47943  0.35184  1.0000
  C   C101      1.0  0.81220  0.47926  0.41911  1.0000
  C   C102      1.0  0.80006  0.50209  0.41644  1.0000
  C   C103      1.0  0.70354  0.52836  0.34280  1.0000
  C   C104      1.0  0.68775  0.50915  0.42013  1.0000
  C   C105      1.0  0.65304  0.48515  0.42011  1.0000
  C   C106      1.0  0.63312  0.47896  0.34222  1.0000
  C   C107      1.0  0.64883  0.49935  0.26613  1.0000
  C   C108      1.0  0.68353  0.52382  0.26640  1.0000
  H   H55       1.0  0.85830  0.50343  0.23045  1.0000
  H   H56       1.0  0.83743  0.54229  0.22558  1.0000
  H   H57       1.0  0.80330  0.46124  0.46828  1.0000
  H   H58       1.0  0.78344  0.50037  0.46496  1.0000
  H   H59       1.0  0.70180  0.51114  0.47559  1.0000
  H   H60       1.0  0.64314  0.47042  0.47591  1.0000
  H   H61       1.0  0.69451  0.53646  0.20836  1.0000
  H   H62       1.0  0.63544  0.49572  0.20836  1.0000
  H   H63       1.0  0.77967  0.64259  0.23253  1.0000
  H   H64       1.0  0.80978  0.70272  0.23197  1.0000
  H   H65       1.0  0.88363  0.70302  0.40231  1.0000
  H   H66       1.0  0.85227  0.64302  0.40864  1.0000
  H   H67       1.0  0.83647  0.59259  0.32365  1.0000
  H   H68       1.0  0.74330  0.50264  0.34673  1.0000
  H   H69       1.0  0.74524  0.59520  0.32829  1.0000
  N   N10       1.0  0.23045  0.11165  0.39862  1.0000
  C   C109      1.0  0.19637  0.09385  0.40893  1.0000
  H   H70       1.0  0.18669  0.08614  0.47161  1.0000
  N   N11       1.0  0.87158  0.11097  0.39858  1.0000
  C   C110      1.0  0.88843  0.09377  0.40970  1.0000
  H   H71       1.0  0.89113  0.08687  0.47276  1.0000
  N   N12       1.0  0.88014  0.76081  0.39491  1.0000
  C   C111      1.0  0.89743  0.79482  0.40668  1.0000
  H   H72       1.0  0.90433  0.80423  0.46990  1.0000
  C   C112      1.0  0.60151  0.14911  0.34751  1.0000
  C   C113      1.0  0.54011  0.14922  0.33643  1.0000
  N   N13       1.0  0.55032  0.14066  0.41266  1.0000
  C   C114      1.0  0.57930  0.13939  0.42212  1.0000
  N   N14       1.0  0.58505  0.12931  0.50215  1.0000
  H   H73       1.0  0.60414  0.12579  0.51134  1.0000
  H   H74       1.0  0.56848  0.12253  0.55007  1.0000
  C   C115      1.0  0.84189  0.45296  0.34870  1.0000
  C   C116      1.0  0.84171  0.39138  0.33922  1.0000
  N   N15       1.0  0.85028  0.41035  0.41507  1.0000
  C   C117      1.0  0.85157  0.44064  0.42376  1.0000
  N   N16       1.0  0.86170  0.45671  0.50348  1.0000
  H   H75       1.0  0.86526  0.47936  0.51210  1.0000
  H   H76       1.0  0.86847  0.44704  0.55173  1.0000
  C   C118      1.0  0.53808  0.38923  0.35061  1.0000
  C   C119      1.0  0.59955  0.45069  0.33982  1.0000
  N   N17       1.0  0.58085  0.44033  0.41614  1.0000
  C   C120      1.0  0.55061  0.41130  0.42548  1.0000
  N   N18       1.0  0.53482  0.40542  0.50561  1.0000
  H   H77       1.0  0.51216  0.38638  0.51452  1.0000
  H   H78       1.0  0.54456  0.42198  0.55355  1.0000
