data_image0
_chemical_formula_structural       C5H6C6H6C6H6C6H6C6NH3NC5NH3NC5NH3N2C5H3N2C5H3N2C5H3NC12H6C6H3C9H3C12H6C6H3C9H3C12H6C6H3C9H3C12H6C6H3C9H3NC5H3N2C5H3N2C5H3NC5NH3NC5NH3NC5NH3N
_chemical_formula_sum              "C192 H108 N24"
_cell_length_a       80.989
_cell_length_b       80.9919
_cell_length_c       14.9883
_cell_angle_alpha    90
_cell_angle_beta     90
_cell_angle_gamma    119.998

_space_group_name_H-M_alt    "P 1"
_space_group_IT_number       1

loop_
  _space_group_symop_operation_xyz
  'x, y, z'

loop_
  _atom_site_type_symbol
  _atom_site_label
  _atom_site_symmetry_multiplicity
  _atom_site_fract_x
  _atom_site_fract_y
  _atom_site_fract_z
  _atom_site_occupancy
  C   C1        1.0  0.95975  0.04911  0.34414  1.0000
  C   C2        1.0  0.94125  0.91079  0.34266  1.0000
  C   C3        1.0  0.93307  0.89093  0.33242  1.0000
  C   C4        1.0  0.07957  0.03058  0.34262  1.0000
  C   C5        1.0  0.09942  0.04226  0.33238  1.0000
  H   H1        1.0  0.95436  0.07186  0.33514  1.0000
  H   H2        1.0  0.93244  0.91639  0.35014  1.0000
  H   H3        1.0  0.91852  0.88266  0.33231  1.0000
  H   H4        1.0  0.07397  0.01617  0.35003  1.0000
  H   H5        1.0  0.10769  0.03598  0.33215  1.0000
  H   H6        1.0  0.97411  0.05789  0.35348  1.0000
  C   C6        1.0  0.94810  0.05732  0.33367  1.0000
  C   C7        1.0  0.48102  0.29569  0.31192  1.0000
  C   C8        1.0  0.33841  0.17778  0.32157  1.0000
  C   C9        1.0  0.31854  0.16612  0.33141  1.0000
  C   C10       1.0  0.46687  0.16676  0.32374  1.0000
  C   C11       1.0  0.48182  0.16266  0.31776  1.0000
  H   H7        1.0  0.50702  0.32123  0.30026  1.0000
  H   H8        1.0  0.34374  0.19141  0.29823  1.0000
  H   H9        1.0  0.31002  0.17168  0.31537  1.0000
  H   H10       1.0  0.45309  0.15587  0.31696  1.0000
  H   H11       1.0  0.47851  0.14888  0.30625  1.0000
  H   H12       1.0  0.48636  0.28770  0.28480  1.0000
  C   C12       1.0  0.49317  0.31548  0.32081  1.0000
  C   C13       1.0  0.69471  0.18552  0.31203  1.0000
  C   C14       1.0  0.81260  0.16081  0.32177  1.0000
  C   C15       1.0  0.82426  0.15260  0.33162  1.0000
  C   C16       1.0  0.82365  0.30029  0.32387  1.0000
  C   C17       1.0  0.82777  0.31935  0.31778  1.0000
  H   H13       1.0  0.66916  0.18597  0.30028  1.0000
  H   H14       1.0  0.79898  0.15252  0.29837  1.0000
  H   H15       1.0  0.81870  0.13852  0.31549  1.0000
  H   H16       1.0  0.83455  0.29740  0.31734  1.0000
  H   H17       1.0  0.84155  0.32981  0.30629  1.0000
  H   H18       1.0  0.70270  0.19885  0.28490  1.0000
  C   C18       1.0  0.67492  0.17788  0.32091  1.0000
  C   C19       1.0  0.80489  0.50936  0.31213  1.0000
  C   C20       1.0  0.82958  0.65196  0.32157  1.0000
  C   C21       1.0  0.83778  0.67183  0.33141  1.0000
  C   C22       1.0  0.69010  0.52351  0.32382  1.0000
  C   C23       1.0  0.67104  0.50857  0.31782  1.0000
  H   H19       1.0  0.80446  0.48337  0.30038  1.0000
  H   H20       1.0  0.83787  0.64662  0.29819  1.0000
  H   H21       1.0  0.85186  0.68035  0.31533  1.0000
  H   H22       1.0  0.69298  0.53729  0.31699  1.0000
  H   H23       1.0  0.66057  0.51187  0.30623  1.0000
  H   H24       1.0  0.79155  0.50400  0.28501  1.0000
  C   C24       1.0  0.81255  0.49722  0.32097  1.0000
  C   C25       1.0  0.25961  0.12828  0.33714  1.0000
  C   C26       1.0  0.24962  0.12918  0.26201  1.0000
  C   C27       1.0  0.22955  0.11963  0.26147  1.0000
  C   C28       1.0  0.21918  0.10914  0.33733  1.0000
  C   C29       1.0  0.16928  0.09115  0.26901  1.0000
  N   N1        1.0  0.18859  0.10001  0.27143  1.0000
  H   H25       1.0  0.16286  0.09245  0.21296  1.0000
  H   H26       1.0  0.25690  0.13669  0.20663  1.0000
  H   H27       1.0  0.22274  0.12046  0.20564  1.0000
  N   N2        1.0  0.27857  0.13773  0.33420  1.0000
  C   C30       1.0  0.86208  0.13149  0.33714  1.0000
  C   C31       1.0  0.86121  0.12064  0.26187  1.0000
  C   C32       1.0  0.87075  0.11011  0.26124  1.0000
  C   C33       1.0  0.88121  0.11018  0.33713  1.0000
  C   C34       1.0  0.89927  0.07837  0.26828  1.0000
  N   N3        1.0  0.89041  0.08882  0.27084  1.0000
  H   H28       1.0  0.89803  0.07072  0.21201  1.0000
  H   H29       1.0  0.85371  0.12044  0.20648  1.0000
  H   H30       1.0  0.86993  0.10250  0.20532  1.0000
  N   N4        1.0  0.85264  0.14100  0.33430  1.0000
  C   C35       1.0  0.85888  0.73075  0.33718  1.0000
  C   C36       1.0  0.86978  0.74075  0.26205  1.0000
  C   C37       1.0  0.88030  0.76081  0.26151  1.0000
  C   C38       1.0  0.88017  0.77118  0.33736  1.0000
  C   C39       1.0  0.91210  0.82108  0.26908  1.0000
  N   N5        1.0  0.90164  0.80177  0.27149  1.0000
  H   H31       1.0  0.91983  0.82750  0.21304  1.0000
  H   H32       1.0  0.87001  0.73346  0.20668  1.0000
  H   H33       1.0  0.88794  0.76762  0.20569  1.0000
  N   N6        1.0  0.84937  0.71179  0.33425  1.0000
  N   N7        1.0  0.55558  0.15504  0.25607  1.0000
  C   C40       1.0  0.54009  0.15728  0.25565  1.0000
  C   C41       1.0  0.57959  0.14983  0.32353  1.0000
  C   C42       1.0  0.59040  0.15427  0.24387  1.0000
  C   C43       1.0  0.60860  0.15606  0.24488  1.0000
  C   C44       1.0  0.61610  0.15311  0.32417  1.0000
  H   H34       1.0  0.58559  0.15696  0.18565  1.0000
  H   H35       1.0  0.61654  0.16003  0.18756  1.0000
  H   H36       1.0  0.53655  0.16153  0.19805  1.0000
  N   N8        1.0  0.63412  0.15711  0.32313  1.0000
  N   N9        1.0  0.83543  0.40076  0.25599  1.0000
  C   C45       1.0  0.83315  0.38301  0.25557  1.0000
  C   C46       1.0  0.84062  0.42996  0.32353  1.0000
  C   C47       1.0  0.83623  0.43637  0.24382  1.0000
  C   C48       1.0  0.83445  0.45278  0.24480  1.0000
  C   C49       1.0  0.83740  0.46324  0.32409  1.0000
  H   H37       1.0  0.83351  0.42885  0.18563  1.0000
  H   H38       1.0  0.83047  0.45674  0.18749  1.0000
  H   H39       1.0  0.82898  0.37527  0.19788  1.0000
  N   N10       1.0  0.83337  0.47723  0.32305  1.0000
  N   N11       1.0  0.58966  0.43481  0.25605  1.0000
  C   C50       1.0  0.60740  0.45030  0.25563  1.0000
  C   C51       1.0  0.56046  0.41081  0.32353  1.0000
  C   C52       1.0  0.55407  0.39999  0.24386  1.0000
  C   C53       1.0  0.53767  0.38180  0.24487  1.0000
  C   C54       1.0  0.52721  0.37429  0.32417  1.0000
  H   H40       1.0  0.56157  0.40481  0.18563  1.0000
  H   H41       1.0  0.53370  0.37386  0.18754  1.0000
  H   H42       1.0  0.61518  0.45384  0.19802  1.0000
  N   N12       1.0  0.51320  0.35628  0.32312  1.0000
  C   C55       1.0  0.96125  0.92272  0.34123  1.0000
  C   C56       1.0  0.95172  0.02913  0.34053  1.0000
  C   C57       1.0  0.06763  0.03865  0.34124  1.0000
  C   C58       1.0  0.92823  0.04577  0.31914  1.0000
  C   C59       1.0  0.92035  0.02575  0.31561  1.0000
  C   C60       1.0  0.93193  0.01749  0.32644  1.0000
  C   C61       1.0  0.94467  0.88259  0.32044  1.0000
  C   C62       1.0  0.96471  0.89470  0.31911  1.0000
  C   C63       1.0  0.97293  0.91454  0.32963  1.0000
  C   C64       1.0  0.10777  0.06220  0.32039  1.0000
  C   C65       1.0  0.09566  0.07013  0.31913  1.0000
  C   C66       1.0  0.07582  0.05852  0.32969  1.0000
  H   H43       1.0  0.90606  0.01695  0.30481  1.0000
  H   H44       1.0  0.92575  0.00295  0.32291  1.0000
  H   H45       1.0  0.98750  0.92289  0.32778  1.0000
  H   H46       1.0  0.97354  0.88919  0.31017  1.0000
  H   H47       1.0  0.10117  0.08448  0.31020  1.0000
  H   H48       1.0  0.06747  0.06474  0.32786  1.0000
  C   C67       1.0  0.01366  0.00797  0.35490  1.0000
  C   C68       1.0  0.00463  0.98786  0.35489  1.0000
  C   C69       1.0  0.98453  0.97669  0.35488  1.0000
  C   C70       1.0  0.97345  0.98572  0.35470  1.0000
  C   C71       1.0  0.98239  0.00582  0.35471  1.0000
  C   C72       1.0  0.00249  0.01690  0.35470  1.0000
  H   H49       1.0  0.95883  0.97763  0.35368  1.0000
  H   H50       1.0  0.01273  0.98133  0.35398  1.0000
  H   H51       1.0  0.00902  0.03153  0.35371  1.0000
  C   C73       1.0  0.04919  0.02787  0.34817  1.0000
  C   C74       1.0  0.03222  0.01826  0.35243  1.0000
  C   C75       1.0  0.96249  0.02145  0.34768  1.0000
  C   C76       1.0  0.97210  0.01410  0.35210  1.0000
  C   C77       1.0  0.97626  0.95813  0.35241  1.0000
  C   C78       1.0  0.96892  0.94117  0.34816  1.0000
  C   C79       1.0  0.12720  0.07389  0.30675  1.0000
  C   C80       1.0  0.93693  0.86316  0.30687  1.0000
  C   C81       1.0  0.91659  0.05355  0.30523  1.0000
  H   H52       1.0  0.90526  0.04665  0.26584  1.0000
  H   H53       1.0  0.94397  0.85872  0.26841  1.0000
  H   H54       1.0  0.13163  0.08536  0.26832  1.0000
  C   C82       1.0  0.35070  0.17083  0.34490  1.0000
  C   C83       1.0  0.46199  0.28703  0.34218  1.0000
  C   C84       1.0  0.47095  0.18571  0.33656  1.0000
  C   C85       1.0  0.48664  0.32710  0.36009  1.0000
  C   C86       1.0  0.46750  0.31826  0.38989  1.0000
  C   C87       1.0  0.45527  0.29845  0.38095  1.0000
  C   C88       1.0  0.31051  0.14728  0.36485  1.0000
  C   C89       1.0  0.32302  0.14048  0.38778  1.0000
  C   C90       1.0  0.34287  0.15207  0.37782  1.0000
  C   C91       1.0  0.50108  0.17739  0.32417  1.0000
  C   C92       1.0  0.50497  0.19629  0.33772  1.0000
  C   C93       1.0  0.49010  0.20043  0.34414  1.0000
  H   H55       1.0  0.46232  0.32615  0.41950  1.0000
  H   H56       1.0  0.44159  0.29248  0.40445  1.0000
  H   H57       1.0  0.35148  0.14670  0.39586  1.0000
  H   H58       1.0  0.31780  0.12699  0.41260  1.0000
  H   H59       1.0  0.51873  0.20733  0.34199  1.0000
  H   H60       1.0  0.49350  0.21435  0.35262  1.0000
  C   C94       1.0  0.43593  0.20381  0.33620  1.0000
  C   C95       1.0  0.41583  0.19273  0.33544  1.0000
  C   C96       1.0  0.40467  0.20167  0.33428  1.0000
  C   C97       1.0  0.41367  0.22179  0.33403  1.0000
  C   C98       1.0  0.43376  0.23295  0.33466  1.0000
  C   C99       1.0  0.44483  0.22391  0.33574  1.0000
  H   H61       1.0  0.40559  0.22833  0.33386  1.0000
  H   H62       1.0  0.40933  0.17811  0.33612  1.0000
  H   H63       1.0  0.45946  0.23202  0.33655  1.0000
  C   C100      1.0  0.45745  0.19003  0.33790  1.0000
  C   C101      1.0  0.44645  0.19579  0.33750  1.0000
  C   C102      1.0  0.45116  0.26855  0.33802  1.0000
  C   C103      1.0  0.44227  0.25153  0.33572  1.0000
  C   C104      1.0  0.38611  0.19137  0.33542  1.0000
  C   C105      1.0  0.36914  0.18170  0.33859  1.0000
  C   C106      1.0  0.51614  0.17408  0.31228  1.0000
  C   C107      1.0  0.29103  0.13571  0.37870  1.0000
  C   C108      1.0  0.49883  0.34646  0.37439  1.0000
  H   H64       1.0  0.49651  0.35270  0.42622  1.0000
  H   H65       1.0  0.28663  0.12522  0.42314  1.0000
  H   H66       1.0  0.52790  0.18424  0.28284  1.0000
  C   C109      1.0  0.81956  0.18005  0.34522  1.0000
  C   C110      1.0  0.70337  0.17515  0.34232  1.0000
  C   C111      1.0  0.80469  0.28543  0.33651  1.0000
  C   C112      1.0  0.66329  0.15972  0.36012  1.0000
  C   C113      1.0  0.67214  0.14943  0.38991  1.0000
  C   C114      1.0  0.69195  0.15701  0.38101  1.0000
  C   C115      1.0  0.84309  0.16339  0.36516  1.0000
  C   C116      1.0  0.84990  0.18269  0.38817  1.0000
  C   C117      1.0  0.83832  0.19097  0.37823  1.0000
  C   C118      1.0  0.81303  0.32388  0.32376  1.0000
  C   C119      1.0  0.79411  0.30887  0.33716  1.0000
  C   C120      1.0  0.78997  0.28986  0.34371  1.0000
  H   H67       1.0  0.66425  0.13636  0.41952  1.0000
  H   H68       1.0  0.69792  0.14930  0.40454  1.0000
  H   H69       1.0  0.84370  0.20494  0.39629  1.0000
  H   H70       1.0  0.86339  0.19095  0.41300  1.0000
  H   H71       1.0  0.78307  0.31160  0.34107  1.0000
  H   H72       1.0  0.77605  0.27935  0.35206  1.0000
  C   C121      1.0  0.78658  0.23230  0.33634  1.0000
  C   C122      1.0  0.79768  0.22330  0.33561  1.0000
  C   C123      1.0  0.78873  0.20319  0.33446  1.0000
  C   C124      1.0  0.76862  0.19207  0.33420  1.0000
  C   C125      1.0  0.75745  0.20101  0.33480  1.0000
  C   C126      1.0  0.76649  0.22110  0.33586  1.0000
  H   H73       1.0  0.76207  0.17745  0.33407  1.0000
  H   H74       1.0  0.81230  0.23142  0.33631  1.0000
  H   H75       1.0  0.75838  0.22763  0.33666  1.0000
  C   C127      1.0  0.80037  0.26761  0.33795  1.0000
  C   C128      1.0  0.79460  0.25084  0.33762  1.0000
  C   C129      1.0  0.72185  0.18280  0.33815  1.0000
  C   C130      1.0  0.73887  0.19094  0.33586  1.0000
  C   C131      1.0  0.79903  0.19493  0.33566  1.0000
  C   C132      1.0  0.80870  0.18763  0.33887  1.0000
  C   C133      1.0  0.81635  0.34224  0.31160  1.0000
  C   C134      1.0  0.85465  0.15546  0.37894  1.0000
  C   C135      1.0  0.64394  0.15255  0.37439  1.0000
  H   H76       1.0  0.63769  0.14398  0.42619  1.0000
  H   H77       1.0  0.86514  0.16154  0.42343  1.0000
  H   H78       1.0  0.80623  0.34384  0.28168  1.0000
  C   C136      1.0  0.81033  0.63967  0.34498  1.0000
  C   C137      1.0  0.81525  0.52839  0.34228  1.0000
  C   C138      1.0  0.70496  0.51943  0.33660  1.0000
  C   C139      1.0  0.83071  0.50377  0.36008  1.0000
  C   C140      1.0  0.84100  0.52291  0.38985  1.0000
  C   C141      1.0  0.83340  0.53513  0.38093  1.0000
  C   C142      1.0  0.82698  0.67986  0.36491  1.0000
  C   C143      1.0  0.80767  0.66735  0.38786  1.0000
  C   C144      1.0  0.79941  0.64750  0.37794  1.0000
  C   C145      1.0  0.66651  0.48930  0.32412  1.0000
  C   C146      1.0  0.68153  0.48541  0.33772  1.0000
  C   C147      1.0  0.70053  0.50028  0.34416  1.0000
  H   H79       1.0  0.85407  0.52810  0.41938  1.0000
  H   H80       1.0  0.84111  0.54882  0.40440  1.0000
  H   H81       1.0  0.78543  0.63889  0.39597  1.0000
  H   H82       1.0  0.79940  0.67257  0.41269  1.0000
  H   H83       1.0  0.67880  0.47164  0.34195  1.0000
  H   H84       1.0  0.71105  0.49688  0.35264  1.0000
  C   C148      1.0  0.75809  0.55445  0.33623  1.0000
  C   C149      1.0  0.76709  0.57454  0.33546  1.0000
  C   C150      1.0  0.78721  0.58570  0.33430  1.0000
  C   C151      1.0  0.79832  0.57670  0.33407  1.0000
  C   C152      1.0  0.78938  0.55661  0.33470  1.0000
  C   C153      1.0  0.76928  0.54555  0.33578  1.0000
  H   H85       1.0  0.81294  0.58478  0.33391  1.0000
  H   H86       1.0  0.75898  0.58104  0.33613  1.0000
  H   H87       1.0  0.76276  0.53091  0.33660  1.0000
  C   C154      1.0  0.72278  0.53293  0.33793  1.0000
  C   C155      1.0  0.73955  0.54393  0.33754  1.0000
  C   C156      1.0  0.80759  0.53921  0.33811  1.0000
  C   C157      1.0  0.79945  0.54810  0.33579  1.0000
  C   C158      1.0  0.79546  0.60426  0.33544  1.0000
  C   C159      1.0  0.80276  0.62123  0.33864  1.0000
  C   C160      1.0  0.64814  0.47424  0.31224  1.0000
  C   C161      1.0  0.83488  0.69934  0.37872  1.0000
  C   C162      1.0  0.83791  0.49160  0.37431  1.0000
  H   H88       1.0  0.84648  0.49393  0.42613  1.0000
  H   H89       1.0  0.82878  0.70374  0.42310  1.0000
  H   H90       1.0  0.64655  0.46249  0.28280  1.0000
  N   N13       1.0  0.22944  0.10891  0.40888  1.0000
  C   C163      1.0  0.24875  0.11785  0.41182  1.0000
  C   C164      1.0  0.19887  0.09918  0.34152  1.0000
  C   C165      1.0  0.18853  0.08814  0.41625  1.0000
  C   C166      1.0  0.16847  0.07863  0.41609  1.0000
  C   C167      1.0  0.15846  0.08018  0.34263  1.0000
  H   H91       1.0  0.19535  0.08681  0.47086  1.0000
  H   H92       1.0  0.16121  0.07068  0.47057  1.0000
  H   H93       1.0  0.25511  0.11701  0.46908  1.0000
  N   N14       1.0  0.13952  0.07077  0.34576  1.0000
  N   N15       1.0  0.88142  0.12063  0.40880  1.0000
  C   C168      1.0  0.87248  0.13100  0.41184  1.0000
  C   C169      1.0  0.89115  0.09982  0.34122  1.0000
  C   C170      1.0  0.90210  0.10040  0.41613  1.0000
  C   C171      1.0  0.91160  0.08984  0.41586  1.0000
  C   C172      1.0  0.91015  0.07841  0.34205  1.0000
  H   H94       1.0  0.90335  0.10846  0.47098  1.0000
  H   H95       1.0  0.91948  0.09044  0.47048  1.0000
  H   H96       1.0  0.87330  0.13817  0.46919  1.0000
  N   N16       1.0  0.91955  0.06886  0.34516  1.0000
  N   N17       1.0  0.86968  0.76092  0.40891  1.0000
  C   C173      1.0  0.85932  0.74162  0.41185  1.0000
  C   C174      1.0  0.89053  0.79149  0.34156  1.0000
  C   C175      1.0  0.88983  0.80183  0.41629  1.0000
  C   C176      1.0  0.90038  0.82189  0.41613  1.0000
  C   C177      1.0  0.91194  0.83190  0.34270  1.0000
  H   H97       1.0  0.88167  0.79501  0.47088  1.0000
  H   H98       1.0  0.89970  0.82916  0.47061  1.0000
  H   H99       1.0  0.85211  0.73526  0.46911  1.0000
  N   N18       1.0  0.92148  0.85084  0.34584  1.0000
  C   C178      1.0  0.52991  0.15500  0.33551  1.0000
  C   C179      1.0  0.53560  0.14903  0.41210  1.0000
  C   C180      1.0  0.55162  0.14656  0.40936  1.0000
  C   C181      1.0  0.56207  0.14997  0.32903  1.0000
  C   C182      1.0  0.60469  0.14821  0.40171  1.0000
  N   N19       1.0  0.58739  0.14703  0.39854  1.0000
  H   H100      1.0  0.60960  0.14653  0.46182  1.0000
  H   H101      1.0  0.52865  0.14729  0.47141  1.0000
  H   H102      1.0  0.55587  0.14295  0.46682  1.0000
  N   N20       1.0  0.51594  0.15906  0.34189  1.0000
  C   C183      1.0  0.83536  0.37508  0.33548  1.0000
  C   C184      1.0  0.84130  0.38672  0.41216  1.0000
  C   C185      1.0  0.84377  0.40521  0.40944  1.0000
  C   C186      1.0  0.84044  0.41229  0.32904  1.0000
  C   C187      1.0  0.84224  0.45670  0.40169  1.0000
  N   N21       1.0  0.84339  0.44055  0.39856  1.0000
  H   H103      1.0  0.84387  0.46326  0.46182  1.0000
  H   H104      1.0  0.84294  0.38147  0.47155  1.0000
  H   H105      1.0  0.84731  0.41303  0.46700  1.0000
  N   N22       1.0  0.83130  0.35705  0.34184  1.0000
  C   C188      1.0  0.61529  0.46048  0.33549  1.0000
  C   C189      1.0  0.60364  0.45479  0.41210  1.0000
  C   C190      1.0  0.58515  0.43877  0.40936  1.0000
  C   C191      1.0  0.57810  0.42832  0.32902  1.0000
  C   C192      1.0  0.53373  0.38570  0.40171  1.0000
  N   N23       1.0  0.54986  0.40300  0.39855  1.0000
  H   H106      1.0  0.52714  0.38079  0.46182  1.0000
  H   H107      1.0  0.60885  0.46174  0.47140  1.0000
  H   H108      1.0  0.57729  0.43452  0.46682  1.0000
  N   N24       1.0  0.63333  0.47445  0.34187  1.0000
