data_image0
_chemical_formula_structural       N12C4HCH3C4HCH3C4HCH3C4HCH3C4HCH3C4HCH3C4HCH3C4HCH3C4HCH3C4HCH3C4HCH3C4HCH3C6H3C6H3C6H3C6H3C6H3C6H3C6H3C6H3C6H3C6H3C6H3C6H3C4HCH3C4HCH3C4HCH3C4HCH3C4HCH3C4HCH3N24
_chemical_formula_sum              "N36 C162 H108"
_cell_length_a       37.267
_cell_length_b       37.267
_cell_length_c       14.8287
_cell_angle_alpha    90
_cell_angle_beta     90
_cell_angle_gamma    120

_space_group_name_H-M_alt    "P 1"
_space_group_IT_number       1

loop_
  _space_group_symop_operation_xyz
  'x, y, z'

loop_
  _atom_site_type_symbol
  _atom_site_label
  _atom_site_symmetry_multiplicity
  _atom_site_fract_x
  _atom_site_fract_y
  _atom_site_fract_z
  _atom_site_occupancy
  N   N1        1.0  0.17866  0.37632  0.27972  1.0000
  N   N2        1.0  0.19856  0.41699  0.28184  1.0000
  N   N3        1.0  0.62933  0.79656  0.27965  1.0000
  N   N4        1.0  0.58866  0.77580  0.28176  1.0000
  N   N5        1.0  0.20910  0.82686  0.27963  1.0000
  N   N6        1.0  0.22985  0.80694  0.28173  1.0000
  N   N7        1.0  0.83281  0.62353  0.27975  1.0000
  N   N8        1.0  0.81292  0.58286  0.28178  1.0000
  N   N9        1.0  0.38218  0.20324  0.27950  1.0000
  N   N10       1.0  0.42285  0.22398  0.28166  1.0000
  N   N11       1.0  0.80222  0.17287  0.27990  1.0000
  N   N12       1.0  0.78145  0.19277  0.28205  1.0000
  C   C1        1.0  0.18406  0.21894  0.30168  1.0000
  C   C2        1.0  0.17432  0.18853  0.23465  1.0000
  C   C3        1.0  0.19569  0.16608  0.22982  1.0000
  C   C4        1.0  0.22648  0.17406  0.29634  1.0000
  H   H1        1.0  0.15206  0.18338  0.18778  1.0000
  C   C5        1.0  0.18663  0.13708  0.15292  1.0000
  H   H2        1.0  0.17087  0.14298  0.09773  1.0000
  H   H3        1.0  0.16665  0.10521  0.17499  1.0000
  H   H4        1.0  0.21532  0.14034  0.12565  1.0000
  C   C6        1.0  0.78667  0.95924  0.30197  1.0000
  C   C7        1.0  0.81701  0.97990  0.23481  1.0000
  C   C8        1.0  0.83948  0.02372  0.23001  1.0000
  C   C9        1.0  0.83155  0.04653  0.29663  1.0000
  H   H5        1.0  0.82215  0.96279  0.18790  1.0000
  C   C10       1.0  0.86843  0.04368  0.15303  1.0000
  H   H6        1.0  0.86257  0.02199  0.09791  1.0000
  H   H7        1.0  0.90032  0.05568  0.17502  1.0000
  H   H8        1.0  0.86505  0.06902  0.12569  1.0000
  C   C11       1.0  0.04644  0.82158  0.30194  1.0000
  C   C12       1.0  0.02579  0.83129  0.23484  1.0000
  C   C13       1.0  0.98196  0.80993  0.23004  1.0000
  C   C14       1.0  0.95915  0.77917  0.29663  1.0000
  H   H9        1.0  0.04289  0.85350  0.18789  1.0000
  C   C15       1.0  0.96201  0.81891  0.15302  1.0000
  H   H10       1.0  0.98370  0.83475  0.09793  1.0000
  H   H11       1.0  0.94998  0.83878  0.17500  1.0000
  H   H12       1.0  0.93668  0.79017  0.12565  1.0000
  C   C16       1.0  0.82742  0.78090  0.30187  1.0000
  C   C17       1.0  0.83717  0.81132  0.23485  1.0000
  C   C18       1.0  0.81582  0.83379  0.23006  1.0000
  C   C19       1.0  0.78502  0.82580  0.29657  1.0000
  H   H13       1.0  0.85944  0.81649  0.18801  1.0000
  C   C20       1.0  0.82490  0.86282  0.15320  1.0000
  H   H14       1.0  0.84064  0.85691  0.09798  1.0000
  H   H15       1.0  0.84491  0.89468  0.17531  1.0000
  H   H16       1.0  0.79622  0.85960  0.12595  1.0000
  C   C21       1.0  0.22479  0.04061  0.30179  1.0000
  C   C22       1.0  0.19440  0.01995  0.23471  1.0000
  C   C23       1.0  0.17194  0.97612  0.22992  1.0000
  C   C24       1.0  0.17990  0.95332  0.29651  1.0000
  H   H17       1.0  0.18928  0.03704  0.18776  1.0000
  C   C25       1.0  0.14297  0.95616  0.15297  1.0000
  H   H18       1.0  0.14884  0.97783  0.09782  1.0000
  H   H19       1.0  0.11109  0.94419  0.17500  1.0000
  H   H20       1.0  0.14632  0.93078  0.12567  1.0000
  C   C26       1.0  0.96502  0.17827  0.30183  1.0000
  C   C27       1.0  0.98567  0.16851  0.23479  1.0000
  C   C28       1.0  0.02950  0.18986  0.22998  1.0000
  C   C29       1.0  0.05231  0.22067  0.29646  1.0000
  H   H21       1.0  0.96856  0.14626  0.18793  1.0000
  C   C30       1.0  0.04943  0.18081  0.15303  1.0000
  H   H22       1.0  0.02775  0.16506  0.09786  1.0000
  H   H23       1.0  0.06133  0.16084  0.17505  1.0000
  H   H24       1.0  0.07484  0.20951  0.12575  1.0000
  C   C31       1.0  0.22704  0.64709  0.39316  1.0000
  C   C32       1.0  0.20534  0.61789  0.32415  1.0000
  C   C33       1.0  0.20575  0.57975  0.32038  1.0000
  C   C34       1.0  0.22738  0.57136  0.38931  1.0000
  H   H25       1.0  0.19511  0.62709  0.26963  1.0000
  C   C35       1.0  0.18949  0.55328  0.23876  1.0000
  H   H26       1.0  0.17569  0.56507  0.19066  1.0000
  H   H27       1.0  0.16552  0.52219  0.25826  1.0000
  H   H28       1.0  0.21443  0.55150  0.20429  1.0000
  C   C36       1.0  0.35836  0.57436  0.39299  1.0000
  C   C37       1.0  0.38769  0.58148  0.32452  1.0000
  C   C38       1.0  0.42577  0.62011  0.32060  1.0000
  C   C39       1.0  0.43390  0.65028  0.38906  1.0000
  H   H29       1.0  0.37848  0.56208  0.26997  1.0000
  C   C40       1.0  0.45235  0.63019  0.23921  1.0000
  H   H30       1.0  0.44066  0.60451  0.19136  1.0000
  H   H31       1.0  0.48342  0.63738  0.25906  1.0000
  H   H32       1.0  0.45415  0.65683  0.20433  1.0000
  C   C41       1.0  0.43155  0.77855  0.39302  1.0000
  C   C42       1.0  0.42407  0.80035  0.32419  1.0000
  C   C43       1.0  0.38541  0.79972  0.32030  1.0000
  C   C44       1.0  0.35534  0.77774  0.38891  1.0000
  H   H33       1.0  0.44352  0.81057  0.26971  1.0000
  C   C45       1.0  0.37522  0.81603  0.23874  1.0000
  H   H34       1.0  0.40084  0.82994  0.19076  1.0000
  H   H35       1.0  0.36800  0.83992  0.25836  1.0000
  H   H36       1.0  0.34855  0.79109  0.20410  1.0000
  C   C46       1.0  0.78394  0.35259  0.39316  1.0000
  C   C47       1.0  0.80594  0.38176  0.32430  1.0000
  C   C48       1.0  0.80565  0.41996  0.32038  1.0000
  C   C49       1.0  0.78401  0.42842  0.38915  1.0000
  H   H37       1.0  0.81622  0.37251  0.26995  1.0000
  C   C50       1.0  0.82209  0.44644  0.23884  1.0000
  H   H38       1.0  0.83594  0.43463  0.19093  1.0000
  H   H39       1.0  0.84605  0.47752  0.25848  1.0000
  H   H40       1.0  0.79724  0.44828  0.20411  1.0000
  C   C51       1.0  0.65306  0.42554  0.39264  1.0000
  C   C52       1.0  0.62369  0.41820  0.32411  1.0000
  C   C53       1.0  0.58564  0.37953  0.32029  1.0000
  C   C54       1.0  0.57760  0.34941  0.38879  1.0000
  H   H41       1.0  0.63286  0.43756  0.26947  1.0000
  C   C55       1.0  0.55910  0.36937  0.23880  1.0000
  H   H42       1.0  0.57078  0.39502  0.19087  1.0000
  H   H43       1.0  0.52800  0.36214  0.25852  1.0000
  H   H44       1.0  0.55737  0.34273  0.20405  1.0000
  C   C56       1.0  0.57982  0.22107  0.39338  1.0000
  C   C57       1.0  0.58737  0.19944  0.32434  1.0000
  C   C58       1.0  0.62597  0.19995  0.32061  1.0000
  C   C59       1.0  0.65594  0.22169  0.38954  1.0000
  H   H45       1.0  0.56795  0.18919  0.26980  1.0000
  C   C60       1.0  0.63623  0.18373  0.23899  1.0000
  H   H46       1.0  0.61067  0.16992  0.19085  1.0000
  H   H47       1.0  0.64338  0.15978  0.25850  1.0000
  H   H48       1.0  0.66295  0.20870  0.20458  1.0000
  C   C61       1.0  0.09661  0.24276  0.30478  1.0000
  C   C62       1.0  0.11884  0.22110  0.30439  1.0000
  C   C63       1.0  0.16258  0.24162  0.30880  1.0000
  C   C64       1.0  0.18421  0.28516  0.31863  1.0000
  C   C65       1.0  0.16336  0.30814  0.32523  1.0000
  C   C66       1.0  0.11955  0.28636  0.31668  1.0000
  H   H49       1.0  0.21590  0.30051  0.31800  1.0000
  H   H50       1.0  0.10404  0.30257  0.31918  1.0000
  H   H51       1.0  0.10277  0.18943  0.30238  1.0000
  C   C67       1.0  0.76291  0.84799  0.30491  1.0000
  C   C68       1.0  0.78455  0.89187  0.30456  1.0000
  C   C69       1.0  0.76401  0.91508  0.30908  1.0000
  C   C70       1.0  0.72047  0.89314  0.31903  1.0000
  C   C71       1.0  0.69752  0.84930  0.32546  1.0000
  C   C72       1.0  0.71931  0.82729  0.31680  1.0000
  H   H52       1.0  0.70509  0.90945  0.31845  1.0000
  H   H53       1.0  0.70311  0.79558  0.31925  1.0000
  H   H54       1.0  0.81622  0.90750  0.30250  1.0000
  C   C73       1.0  0.15770  0.90903  0.30487  1.0000
  C   C74       1.0  0.11382  0.88680  0.30449  1.0000
  C   C75       1.0  0.09060  0.84305  0.30903  1.0000
  C   C76       1.0  0.11253  0.82144  0.31899  1.0000
  C   C77       1.0  0.15636  0.84231  0.32542  1.0000
  C   C78       1.0  0.17839  0.88611  0.31677  1.0000
  H   H55       1.0  0.09620  0.78975  0.31840  1.0000
  H   H56       1.0  0.21010  0.90162  0.31922  1.0000
  H   H57       1.0  0.09821  0.90286  0.30249  1.0000
  C   C79       1.0  0.91485  0.75708  0.30492  1.0000
  C   C80       1.0  0.89263  0.77874  0.30453  1.0000
  C   C81       1.0  0.84889  0.75822  0.30899  1.0000
  C   C82       1.0  0.82726  0.71467  0.31884  1.0000
  C   C83       1.0  0.84812  0.69170  0.32537  1.0000
  C   C84       1.0  0.89192  0.71347  0.31681  1.0000
  H   H58       1.0  0.79557  0.69932  0.31817  1.0000
  H   H59       1.0  0.90743  0.69727  0.31930  1.0000
  H   H60       1.0  0.90870  0.81041  0.30257  1.0000
  C   C85       1.0  0.24859  0.15187  0.30467  1.0000
  C   C86       1.0  0.22694  0.10799  0.30429  1.0000
  C   C87       1.0  0.24746  0.08477  0.30886  1.0000
  C   C88       1.0  0.29100  0.10670  0.31880  1.0000
  C   C89       1.0  0.31396  0.15054  0.32525  1.0000
  C   C90       1.0  0.29219  0.17256  0.31659  1.0000
  H   H61       1.0  0.30636  0.09037  0.31829  1.0000
  H   H62       1.0  0.30839  0.20427  0.31907  1.0000
  H   H63       1.0  0.19526  0.09237  0.30230  1.0000
  C   C91       1.0  0.85375  0.09083  0.30493  1.0000
  C   C92       1.0  0.89763  0.11305  0.30454  1.0000
  C   C93       1.0  0.92086  0.15680  0.30895  1.0000
  C   C94       1.0  0.89894  0.17842  0.31877  1.0000
  C   C95       1.0  0.85511  0.15757  0.32535  1.0000
  C   C96       1.0  0.83308  0.11376  0.31682  1.0000
  H   H64       1.0  0.91528  0.21011  0.31814  1.0000
  H   H65       1.0  0.80137  0.09825  0.31934  1.0000
  H   H66       1.0  0.91324  0.09698  0.30255  1.0000
  C   C97       1.0  0.31481  0.54850  0.38265  1.0000
  C   C98       1.0  0.28981  0.56653  0.39861  1.0000
  C   C99       1.0  0.24668  0.54670  0.38038  1.0000
  C   C100      1.0  0.22755  0.50483  0.35181  1.0000
  C   C101      1.0  0.25045  0.48378  0.34430  1.0000
  C   C102      1.0  0.29437  0.50701  0.35250  1.0000
  H   H67       1.0  0.19598  0.48836  0.34613  1.0000
  H   H68       1.0  0.31138  0.49251  0.34500  1.0000
  H   H69       1.0  0.30482  0.59755  0.41339  1.0000
  C   C103      1.0  0.45724  0.76068  0.38259  1.0000
  C   C104      1.0  0.43905  0.71762  0.39817  1.0000
  C   C105      1.0  0.45878  0.69422  0.38005  1.0000
  C   C106      1.0  0.50069  0.71688  0.35167  1.0000
  C   C107      1.0  0.52188  0.76084  0.34437  1.0000
  C   C108      1.0  0.49878  0.78166  0.35281  1.0000
  H   H70       1.0  0.51709  0.70170  0.34605  1.0000
  H   H71       1.0  0.51339  0.81317  0.34535  1.0000
  H   H72       1.0  0.40801  0.70165  0.41273  1.0000
  C   C109      1.0  0.24492  0.69065  0.38284  1.0000
  C   C110      1.0  0.28798  0.71552  0.39851  1.0000
  C   C111      1.0  0.31139  0.75864  0.38015  1.0000
  C   C112      1.0  0.28873  0.77787  0.35164  1.0000
  C   C113      1.0  0.24478  0.75510  0.34434  1.0000
  C   C114      1.0  0.22397  0.71117  0.35264  1.0000
  H   H73       1.0  0.30390  0.80944  0.34596  1.0000
  H   H74       1.0  0.19244  0.69427  0.34539  1.0000
  H   H75       1.0  0.30393  0.70046  0.41341  1.0000
  C   C115      1.0  0.69660  0.45133  0.38207  1.0000
  C   C116      1.0  0.72154  0.43322  0.39776  1.0000
  C   C117      1.0  0.76470  0.45307  0.37992  1.0000
  C   C118      1.0  0.78388  0.49494  0.35133  1.0000
  C   C119      1.0  0.76101  0.51604  0.34404  1.0000
  C   C120      1.0  0.71708  0.49284  0.35210  1.0000
  H   H76       1.0  0.81546  0.51144  0.34619  1.0000
  H   H77       1.0  0.70013  0.50742  0.34488  1.0000
  H   H78       1.0  0.70653  0.40220  0.41249  1.0000
  C   C121      1.0  0.55413  0.23896  0.38308  1.0000
  C   C122      1.0  0.57234  0.28203  0.39873  1.0000
  C   C123      1.0  0.55268  0.30546  0.38012  1.0000
  C   C124      1.0  0.51082  0.28285  0.35132  1.0000
  C   C125      1.0  0.48959  0.23887  0.34439  1.0000
  C   C126      1.0  0.51267  0.21803  0.35279  1.0000
  H   H79       1.0  0.49442  0.29801  0.34587  1.0000
  H   H80       1.0  0.49802  0.18650  0.34563  1.0000
  H   H81       1.0  0.60336  0.29796  0.41348  1.0000
  C   C127      1.0  0.76626  0.30903  0.38317  1.0000
  C   C128      1.0  0.72324  0.28405  0.39932  1.0000
  C   C129      1.0  0.69991  0.24094  0.38085  1.0000
  C   C130      1.0  0.72262  0.22181  0.35199  1.0000
  C   C131      1.0  0.76657  0.24468  0.34456  1.0000
  C   C132      1.0  0.78727  0.28859  0.35275  1.0000
  H   H82       1.0  0.70749  0.19023  0.34645  1.0000
  H   H83       1.0  0.81877  0.30560  0.34513  1.0000
  H   H84       1.0  0.70722  0.29904  0.41421  1.0000
  C   C133      1.0  0.22972  0.43954  0.34098  1.0000
  C   C134      1.0  0.23857  0.41694  0.40500  1.0000
  C   C135      1.0  0.21681  0.37307  0.40492  1.0000
  C   C136      1.0  0.18630  0.35222  0.33687  1.0000
  H   H85       1.0  0.26022  0.43263  0.45397  1.0000
  C   C137      1.0  0.22459  0.35087  0.47912  1.0000
  H   H86       1.0  0.24285  0.37161  0.53381  1.0000
  H   H87       1.0  0.24156  0.33619  0.45381  1.0000
  H   H88       1.0  0.19525  0.32724  0.50801  1.0000
  C   C138      1.0  0.56613  0.78424  0.34131  1.0000
  C   C139      1.0  0.58875  0.81551  0.40568  1.0000
  C   C140      1.0  0.63261  0.83761  0.40556  1.0000
  C   C141      1.0  0.65344  0.82813  0.33714  1.0000
  H   H89       1.0  0.57306  0.82140  0.45479  1.0000
  C   C142      1.0  0.65485  0.86747  0.47994  1.0000
  H   H90       1.0  0.63412  0.86498  0.53464  1.0000
  H   H91       1.0  0.66963  0.89916  0.45485  1.0000
  H   H92       1.0  0.67841  0.86162  0.50872  1.0000
  C   C143      1.0  0.22137  0.77593  0.34122  1.0000
  C   C144      1.0  0.19007  0.76725  0.40553  1.0000
  C   C145      1.0  0.16800  0.78904  0.40545  1.0000
  C   C146      1.0  0.17751  0.81939  0.33709  1.0000
  H   H93       1.0  0.18420  0.74569  0.45468  1.0000
  C   C147      1.0  0.13816  0.78144  0.47985  1.0000
  H   H94       1.0  0.14063  0.76318  0.53454  1.0000
  H   H95       1.0  0.10646  0.76454  0.45477  1.0000
  H   H96       1.0  0.14402  0.81085  0.50865  1.0000
  C   C148      1.0  0.78177  0.56029  0.34093  1.0000
  C   C149      1.0  0.77293  0.58286  0.40502  1.0000
  C   C150      1.0  0.79466  0.62672  0.40498  1.0000
  C   C151      1.0  0.82518  0.64761  0.33695  1.0000
  H   H97       1.0  0.75125  0.56715  0.45394  1.0000
  C   C152      1.0  0.78686  0.64890  0.47921  1.0000
  H   H98       1.0  0.76859  0.62814  0.53387  1.0000
  H   H99       1.0  0.76988  0.66358  0.45392  1.0000
  H   H100      1.0  0.81620  0.67253  0.50814  1.0000
  C   C153      1.0  0.44534  0.21551  0.34128  1.0000
  C   C154      1.0  0.42269  0.18426  0.40564  1.0000
  C   C155      1.0  0.37883  0.16218  0.40546  1.0000
  C   C156      1.0  0.35804  0.17169  0.33700  1.0000
  H   H101      1.0  0.43835  0.17835  0.45479  1.0000
  C   C157      1.0  0.35656  0.13235  0.47985  1.0000
  H   H102      1.0  0.37727  0.13482  0.53459  1.0000
  H   H103      1.0  0.34175  0.10065  0.45479  1.0000
  H   H104      1.0  0.33301  0.13823  0.50859  1.0000
  C   C158      1.0  0.79006  0.22393  0.34120  1.0000
  C   C159      1.0  0.82152  0.23277  0.40520  1.0000
  C   C160      1.0  0.84362  0.21101  0.40510  1.0000
  C   C161      1.0  0.83396  0.18051  0.33703  1.0000
  H   H105      1.0  0.82749  0.25443  0.45417  1.0000
  C   C162      1.0  0.87362  0.21880  0.47926  1.0000
  H   H106      1.0  0.87114  0.23704  0.53398  1.0000
  H   H107      1.0  0.90527  0.23579  0.45392  1.0000
  H   H108      1.0  0.86794  0.18946  0.50812  1.0000
  N   N13       1.0  0.23465  0.20465  0.35716  1.0000
  N   N14       1.0  0.21513  0.22575  0.35960  1.0000
  N   N15       1.0  0.80100  0.02411  0.35753  1.0000
  N   N16       1.0  0.77990  0.98349  0.35997  1.0000
  N   N17       1.0  0.98157  0.77103  0.35750  1.0000
  N   N18       1.0  0.02219  0.79054  0.35993  1.0000
  N   N19       1.0  0.77684  0.79520  0.35735  1.0000
  N   N20       1.0  0.79635  0.77409  0.35978  1.0000
  N   N21       1.0  0.21046  0.97575  0.35737  1.0000
  N   N22       1.0  0.23157  0.01637  0.35978  1.0000
  N   N23       1.0  0.02990  0.22884  0.35729  1.0000
  N   N24       1.0  0.98928  0.20933  0.35974  1.0000
  N   N25       1.0  0.24274  0.59936  0.45777  1.0000
  N   N26       1.0  0.24290  0.63417  0.45959  1.0000
  N   N27       1.0  0.40598  0.63772  0.45760  1.0000
  N   N28       1.0  0.37117  0.60308  0.45947  1.0000
  N   N29       1.0  0.36798  0.76249  0.45752  1.0000
  N   N30       1.0  0.40273  0.76254  0.45938  1.0000
  N   N31       1.0  0.76850  0.40047  0.45767  1.0000
  N   N32       1.0  0.76816  0.36556  0.45961  1.0000
  N   N33       1.0  0.60553  0.36207  0.45731  1.0000
  N   N34       1.0  0.64027  0.39678  0.45907  1.0000
  N   N35       1.0  0.64327  0.23694  0.45812  1.0000
  N   N36       1.0  0.60855  0.23698  0.45992  1.0000
