data_image0
_chemical_formula_structural       C2HCHC4HCHC2HC2HOC4OHC4HOC4OHC4HOC4OHCNHNCNCHNHNCNHCNCHNHCNCHNHCNCHNHC2H3C4H4C4H4C4HC4H2C4HC6H3C8H3C4HC6H3C4HC6H3C4HC6H3
_chemical_formula_sum              "C108 H54 O6 N12"
_cell_length_a       31.6294
_cell_length_b       31.6294
_cell_length_c       14.8526
_cell_angle_alpha    90
_cell_angle_beta     90
_cell_angle_gamma    120

_space_group_name_H-M_alt    "P 1"
_space_group_IT_number       1

loop_
  _space_group_symop_operation_xyz
  'x, y, z'

loop_
  _atom_site_type_symbol
  _atom_site_label
  _atom_site_symmetry_multiplicity
  _atom_site_fract_x
  _atom_site_fract_y
  _atom_site_fract_z
  _atom_site_occupancy
  C   C1        1.0  0.03441  0.51844  0.34116  1.0000
  C   C2        1.0  0.06262  0.57064  0.34119  1.0000
  H   H1        1.0  0.04619  0.59126  0.34135  1.0000
  C   C3        1.0  0.06262  0.49443  0.34112  1.0000
  H   H2        1.0  0.04619  0.45739  0.34121  1.0000
  C   C4        1.0  0.11424  0.59702  0.34086  1.0000
  C   C5        1.0  0.11424  0.51968  0.34083  1.0000
  C   C6        1.0  0.13992  0.57119  0.34167  1.0000
  C   C7        1.0  0.16402  0.49212  0.26188  1.0000
  H   H3        1.0  0.15391  0.49914  0.20080  1.0000
  C   C8        1.0  0.16400  0.67438  0.26196  1.0000
  H   H4        1.0  0.15394  0.65727  0.20085  1.0000
  C   C9        1.0  0.14168  0.49519  0.34208  1.0000
  C   C10       1.0  0.16043  0.48930  0.42459  1.0000
  H   H5        1.0  0.14702  0.49452  0.48380  1.0000
  C   C11       1.0  0.14167  0.64895  0.34215  1.0000
  C   C12       1.0  0.16037  0.67359  0.42469  1.0000
  H   H6        1.0  0.14700  0.65492  0.48387  1.0000
  O   O1        1.0  0.18991  0.59619  0.34077  1.0000
  C   C13       1.0  0.98055  0.49151  0.34113  1.0000
  C   C14       1.0  0.87504  0.43877  0.34132  1.0000
  C   C15       1.0  0.90071  0.41293  0.34067  1.0000
  C   C16       1.0  0.95234  0.43930  0.34110  1.0000
  O   O2        1.0  0.82505  0.41378  0.34015  1.0000
  H   H7        1.0  0.96876  0.41868  0.34126  1.0000
  C   C17       1.0  0.49397  0.51841  0.34116  1.0000
  C   C18       1.0  0.44176  0.49441  0.34103  1.0000
  C   C19       1.0  0.41538  0.51965  0.34073  1.0000
  C   C20       1.0  0.44122  0.57117  0.34159  1.0000
  H   H8        1.0  0.42114  0.45736  0.34102  1.0000
  O   O3        1.0  0.41623  0.59616  0.34063  1.0000
  C   C21       1.0  0.52090  0.49147  0.34116  1.0000
  C   C22       1.0  0.57365  0.43871  0.34155  1.0000
  C   C23       1.0  0.59948  0.49023  0.34069  1.0000
  C   C24       1.0  0.57311  0.51547  0.34098  1.0000
  O   O4        1.0  0.59864  0.41371  0.34052  1.0000
  H   H9        1.0  0.59373  0.55252  0.34093  1.0000
  C   C25       1.0  0.49398  0.97805  0.34114  1.0000
  C   C26       1.0  0.51798  0.94984  0.34097  1.0000
  C   C27       1.0  0.49273  0.89822  0.34059  1.0000
  C   C28       1.0  0.44122  0.87254  0.34143  1.0000
  H   H10       1.0  0.55503  0.96626  0.34101  1.0000
  O   O5        1.0  0.41622  0.82255  0.34040  1.0000
  C   C29       1.0  0.52092  0.03191  0.34117  1.0000
  C   C30       1.0  0.57368  0.13742  0.34156  1.0000
  C   C31       1.0  0.52216  0.11174  0.34089  1.0000
  C   C32       1.0  0.49692  0.06012  0.34124  1.0000
  O   O6        1.0  0.59867  0.18741  0.34054  1.0000
  H   H11       1.0  0.45987  0.04369  0.34145  1.0000
  C   C33       1.0  0.33804  0.49207  0.26172  1.0000
  N   N1        1.0  0.29257  0.48633  0.26541  1.0000
  H   H12       1.0  0.35515  0.49914  0.20062  1.0000
  N   N2        1.0  0.20373  0.48635  0.26548  1.0000
  C   C34       1.0  0.52033  0.84837  0.26152  1.0000
  N   N3        1.0  0.52620  0.80873  0.26522  1.0000
  C   C35       1.0  0.52040  0.67439  0.26191  1.0000
  H   H13       1.0  0.51358  0.85861  0.20032  1.0000
  N   N4        1.0  0.52623  0.71989  0.26543  1.0000
  H   H14       1.0  0.51355  0.65734  0.20076  1.0000
  N   N5        1.0  0.20372  0.71986  0.26559  1.0000
  C   C36       1.0  0.33803  0.84844  0.26192  1.0000
  N   N6        1.0  0.29256  0.80872  0.26557  1.0000
  H   H15       1.0  0.35514  0.85855  0.20083  1.0000
  C   C37       1.0  0.67692  0.51788  0.26164  1.0000
  N   N7        1.0  0.72245  0.52376  0.26523  1.0000
  C   C38       1.0  0.85101  0.51802  0.26150  1.0000
  H   H16       1.0  0.65993  0.51117  0.20046  1.0000
  N   N8        1.0  0.81132  0.52382  0.26518  1.0000
  H   H17       1.0  0.86119  0.51119  0.20033  1.0000
  C   C39       1.0  0.49454  0.16149  0.26201  1.0000
  N   N9        1.0  0.48878  0.20121  0.26565  1.0000
  C   C40       1.0  0.49451  0.33552  0.26193  1.0000
  H   H18       1.0  0.50156  0.15142  0.20090  1.0000
  N   N10       1.0  0.48876  0.29005  0.26560  1.0000
  H   H19       1.0  0.50151  0.35263  0.20083  1.0000
  C   C41       1.0  0.85095  0.33548  0.26158  1.0000
  N   N11       1.0  0.81130  0.28996  0.26523  1.0000
  C   C42       1.0  0.67696  0.16143  0.26160  1.0000
  H   H20       1.0  0.86124  0.35245  0.20039  1.0000
  N   N12       1.0  0.72246  0.20111  0.26526  1.0000
  H   H21       1.0  0.65995  0.15123  0.20043  1.0000
  C   C43       1.0  0.95235  0.51551  0.34103  1.0000
  C   C44       1.0  0.90073  0.49028  0.34061  1.0000
  H   H22       1.0  0.20039  0.60144  0.40412  1.0000
  H   H23       1.0  0.81447  0.40851  0.40344  1.0000
  H   H24       1.0  0.96878  0.55256  0.34112  1.0000
  C   C45       1.0  0.49273  0.59700  0.34088  1.0000
  C   C46       1.0  0.51798  0.57062  0.34124  1.0000
  C   C47       1.0  0.49689  0.43926  0.34129  1.0000
  C   C48       1.0  0.52213  0.41288  0.34089  1.0000
  H   H25       1.0  0.41094  0.60138  0.40395  1.0000
  H   H26       1.0  0.60388  0.40843  0.40383  1.0000
  H   H27       1.0  0.55502  0.59123  0.34149  1.0000
  H   H28       1.0  0.45985  0.41865  0.34157  1.0000
  C   C49       1.0  0.41539  0.89822  0.34080  1.0000
  C   C50       1.0  0.44177  0.94985  0.34121  1.0000
  C   C51       1.0  0.57312  0.06011  0.34104  1.0000
  C   C52       1.0  0.59950  0.11174  0.34073  1.0000
  H   H29       1.0  0.41094  0.81202  0.40371  1.0000
  H   H30       1.0  0.60390  0.19793  0.40386  1.0000
  H   H31       1.0  0.42116  0.96628  0.34145  1.0000
  H   H32       1.0  0.59374  0.04369  0.34108  1.0000
  C   C53       1.0  0.36345  0.49517  0.34190  1.0000
  C   C54       1.0  0.26825  0.48175  0.34363  1.0000
  C   C55       1.0  0.29122  0.48264  0.42648  1.0000
  C   C56       1.0  0.33886  0.48921  0.42450  1.0000
  H   H33       1.0  0.35754  0.49451  0.48367  1.0000
  C   C57       1.0  0.22349  0.48175  0.34364  1.0000
  C   C58       1.0  0.20145  0.48266  0.42653  1.0000
  C   C59       1.0  0.22344  0.48130  0.50839  1.0000
  C   C60       1.0  0.26790  0.48129  0.50836  1.0000
  H   H34       1.0  0.20855  0.48276  0.56869  1.0000
  H   H35       1.0  0.28426  0.48273  0.56865  1.0000
  C   C61       1.0  0.51721  0.87077  0.34157  1.0000
  C   C62       1.0  0.53069  0.78897  0.34348  1.0000
  C   C63       1.0  0.52963  0.81098  0.42631  1.0000
  C   C64       1.0  0.52297  0.85199  0.42421  1.0000
  H   H36       1.0  0.51771  0.86540  0.48339  1.0000
  C   C65       1.0  0.53071  0.74422  0.34358  1.0000
  C   C66       1.0  0.51722  0.64891  0.34208  1.0000
  C   C67       1.0  0.52303  0.67356  0.42458  1.0000
  C   C68       1.0  0.52963  0.72122  0.42648  1.0000
  C   C69       1.0  0.53086  0.74452  0.50832  1.0000
  C   C70       1.0  0.53090  0.78901  0.50823  1.0000
  H   H37       1.0  0.52923  0.72810  0.56863  1.0000
  H   H38       1.0  0.52920  0.80381  0.56848  1.0000
  H   H39       1.0  0.51764  0.65492  0.48382  1.0000
  C   C71       1.0  0.22347  0.74419  0.34378  1.0000
  C   C72       1.0  0.20142  0.72123  0.42664  1.0000
  C   C73       1.0  0.26822  0.78897  0.34375  1.0000
  C   C74       1.0  0.36347  0.87079  0.34210  1.0000
  C   C75       1.0  0.33885  0.85204  0.42464  1.0000
  C   C76       1.0  0.29119  0.81102  0.42662  1.0000
  C   C77       1.0  0.26787  0.78903  0.50850  1.0000
  C   C78       1.0  0.22340  0.74456  0.50851  1.0000
  H   H40       1.0  0.28424  0.80393  0.56879  1.0000
  H   H41       1.0  0.20850  0.72821  0.56880  1.0000
  H   H42       1.0  0.35749  0.86546  0.48383  1.0000
  C   C79       1.0  0.65139  0.51470  0.34173  1.0000
  C   C80       1.0  0.74672  0.52821  0.34343  1.0000
  C   C81       1.0  0.72367  0.52708  0.42630  1.0000
  C   C82       1.0  0.67599  0.52041  0.42429  1.0000
  H   H43       1.0  0.65734  0.51511  0.48350  1.0000
  C   C83       1.0  0.79150  0.52824  0.34341  1.0000
  C   C84       1.0  0.87329  0.51477  0.34159  1.0000
  C   C85       1.0  0.85450  0.52051  0.42423  1.0000
  C   C86       1.0  0.81345  0.52711  0.42625  1.0000
  C   C87       1.0  0.79138  0.52827  0.50815  1.0000
  C   C88       1.0  0.74693  0.52830  0.50818  1.0000
  H   H44       1.0  0.80619  0.52660  0.56841  1.0000
  H   H45       1.0  0.73044  0.52655  0.56846  1.0000
  H   H46       1.0  0.86778  0.51509  0.48341  1.0000
  C   C89       1.0  0.49768  0.13918  0.34219  1.0000
  C   C90       1.0  0.48423  0.22098  0.34384  1.0000
  C   C91       1.0  0.48517  0.19895  0.42670  1.0000
  C   C92       1.0  0.49176  0.15789  0.42475  1.0000
  H   H47       1.0  0.49710  0.14454  0.48392  1.0000
  C   C93       1.0  0.48421  0.26573  0.34381  1.0000
  C   C94       1.0  0.49765  0.36095  0.34211  1.0000
  C   C95       1.0  0.49180  0.33638  0.42470  1.0000
  C   C96       1.0  0.48517  0.28872  0.42668  1.0000
  C   C97       1.0  0.48386  0.26542  0.50856  1.0000
  C   C98       1.0  0.48386  0.22095  0.50857  1.0000
  H   H48       1.0  0.48535  0.28180  0.56884  1.0000
  H   H49       1.0  0.48534  0.20606  0.56886  1.0000
  H   H50       1.0  0.49705  0.35504  0.48388  1.0000
  C   C99       1.0  0.87326  0.36100  0.34166  1.0000
  C   C100      1.0  0.79146  0.26572  0.34346  1.0000
  C   C101      1.0  0.81339  0.28881  0.42632  1.0000
  C   C102      1.0  0.85440  0.33648  0.42428  1.0000
  H   H51       1.0  0.86775  0.35516  0.48348  1.0000
  C   C103      1.0  0.74670  0.22096  0.34347  1.0000
  C   C104      1.0  0.65143  0.13917  0.34171  1.0000
  C   C105      1.0  0.67597  0.15799  0.42433  1.0000
  C   C106      1.0  0.72362  0.19904  0.42633  1.0000
  C   C107      1.0  0.74684  0.22113  0.50821  1.0000
  C   C108      1.0  0.79133  0.26558  0.50821  1.0000
  H   H52       1.0  0.73036  0.20635  0.56848  1.0000
  H   H53       1.0  0.80607  0.28208  0.56848  1.0000
  H   H54       1.0  0.65727  0.14473  0.48353  1.0000
