data_image0
_chemical_formula_structural       C17H12C17H12NC2N2C2N2C2NC13H9C13H9C2NC2NC2NC2NC2NC2N
_chemical_formula_sum              "C78 H42 N12"
_cell_length_a       37.3106
_cell_length_b       37.2853
_cell_length_c       14.8672
_cell_angle_alpha    90
_cell_angle_beta     90
_cell_angle_gamma    120.036

_space_group_name_H-M_alt    "P 1"
_space_group_IT_number       1

loop_
  _space_group_symop_operation_xyz
  'x, y, z'

loop_
  _atom_site_type_symbol
  _atom_site_label
  _atom_site_symmetry_multiplicity
  _atom_site_fract_x
  _atom_site_fract_y
  _atom_site_fract_z
  _atom_site_occupancy
  C   C1        1.0  0.47783  0.89142  0.36079  1.0000
  C   C2        1.0  0.45313  0.84793  0.36303  1.0000
  C   C3        1.0  0.39048  0.75808  0.30538  1.0000
  C   C4        1.0  0.36520  0.71511  0.31095  1.0000
  C   C5        1.0  0.32145  0.69570  0.31054  1.0000
  C   C6        1.0  0.29599  0.65205  0.31082  1.0000
  C   C7        1.0  0.31538  0.62769  0.30977  1.0000
  C   C8        1.0  0.35900  0.64590  0.31021  1.0000
  C   C9        1.0  0.38338  0.68969  0.30986  1.0000
  C   C10       1.0  0.37665  0.62062  0.30431  1.0000
  C   C11       1.0  0.42738  0.60110  0.34366  1.0000
  C   C12       1.0  0.40406  0.55821  0.36245  1.0000
  C   C13       1.0  0.42277  0.53347  0.36039  1.0000
  C   C14       1.0  0.25304  0.63443  0.30537  1.0000
  C   C15       1.0  0.18274  0.58351  0.34421  1.0000
  C   C16       1.0  0.15749  0.54138  0.32060  1.0000
  C   C17       1.0  0.11407  0.52301  0.31809  1.0000
  H   H1        1.0  0.50886  0.90455  0.37326  1.0000
  H   H2        1.0  0.46673  0.83075  0.37886  1.0000
  H   H3        1.0  0.41499  0.70335  0.30685  1.0000
  H   H4        1.0  0.30784  0.71371  0.30809  1.0000
  H   H5        1.0  0.29740  0.59606  0.30675  1.0000
  H   H6        1.0  0.40486  0.50250  0.37380  1.0000
  H   H7        1.0  0.37340  0.54473  0.37925  1.0000
  H   H8        1.0  0.09678  0.49225  0.30203  1.0000
  H   H9        1.0  0.17049  0.52356  0.30548  1.0000
  H   H10       1.0  0.36294  0.59620  0.26350  1.0000
  H   H11       1.0  0.41468  0.76888  0.26396  1.0000
  H   H12       1.0  0.24232  0.64849  0.26568  1.0000
  C   C18       1.0  0.53556  0.11680  0.31153  1.0000
  C   C19       1.0  0.55872  0.16031  0.31811  1.0000
  C   C20       1.0  0.62393  0.25117  0.29736  1.0000
  C   C21       1.0  0.64848  0.29390  0.30611  1.0000
  C   C22       1.0  0.69219  0.31329  0.30584  1.0000
  C   C23       1.0  0.71733  0.35695  0.30636  1.0000
  C   C24       1.0  0.69796  0.38129  0.30551  1.0000
  C   C25       1.0  0.65434  0.36275  0.30584  1.0000
  C   C26       1.0  0.62998  0.31901  0.30529  1.0000
  C   C27       1.0  0.63625  0.38735  0.29697  1.0000
  C   C28       1.0  0.58893  0.41046  0.34552  1.0000
  C   C29       1.0  0.61062  0.45252  0.31850  1.0000
  C   C30       1.0  0.59039  0.47575  0.31191  1.0000
  C   C31       1.0  0.76005  0.37505  0.29790  1.0000
  C   C32       1.0  0.83048  0.42287  0.34580  1.0000
  C   C33       1.0  0.85533  0.46559  0.36527  1.0000
  C   C34       1.0  0.89880  0.48560  0.35958  1.0000
  H   H13       1.0  0.50510  0.10331  0.29324  1.0000
  H   H14       1.0  0.54438  0.17689  0.30341  1.0000
  H   H15       1.0  0.59836  0.30527  0.30175  1.0000
  H   H16       1.0  0.70589  0.29536  0.30272  1.0000
  H   H17       1.0  0.71588  0.41293  0.30206  1.0000
  H   H18       1.0  0.60754  0.50637  0.29471  1.0000
  H   H19       1.0  0.64166  0.46697  0.30495  1.0000
  H   H20       1.0  0.91560  0.51658  0.37400  1.0000
  H   H21       1.0  0.84195  0.48266  0.38400  1.0000
  H   H22       1.0  0.64484  0.40625  0.24415  1.0000
  H   H23       1.0  0.60536  0.24081  0.24403  1.0000
  H   H24       1.0  0.77042  0.36593  0.24610  1.0000
  N   N1        1.0  0.50918  0.52963  0.26870  1.0000
  C   C35       1.0  0.53032  0.50891  0.26007  1.0000
  C   C36       1.0  0.55021  0.51402  0.18500  1.0000
  N   N2        1.0  0.56762  0.51850  0.11850  1.0000
  N   N3        1.0  0.48181  0.98157  0.26956  1.0000
  C   C37       1.0  0.50261  0.02346  0.26083  1.0000
  C   C38       1.0  0.49801  0.03819  0.18516  1.0000
  N   N4        1.0  0.49402  0.05108  0.11810  1.0000
  N   N5        1.0  0.02930  0.50175  0.27046  1.0000
  C   C39       1.0  0.98743  0.48061  0.26174  1.0000
  C   C40       1.0  0.97257  0.46017  0.18729  1.0000
  N   N6        1.0  0.95953  0.44222  0.12138  1.0000
  C   C41       1.0  0.46032  0.91658  0.34154  1.0000
  C   C42       1.0  0.41013  0.82830  0.34577  1.0000
  C   C43       1.0  0.39262  0.85334  0.32563  1.0000
  C   C44       1.0  0.41745  0.89680  0.32243  1.0000
  C   C45       1.0  0.38481  0.78560  0.35281  1.0000
  C   C46       1.0  0.41014  0.62651  0.35078  1.0000
  C   C47       1.0  0.46977  0.61844  0.32218  1.0000
  C   C48       1.0  0.46532  0.55081  0.33996  1.0000
  C   C49       1.0  0.48830  0.59355  0.31920  1.0000
  C   C50       1.0  0.22538  0.60056  0.35086  1.0000
  C   C51       1.0  0.16338  0.60675  0.36545  1.0000
  C   C52       1.0  0.09447  0.54587  0.34125  1.0000
  C   C53       1.0  0.11994  0.58822  0.36361  1.0000
  H   H25       1.0  0.40362  0.91398  0.30887  1.0000
  H   H26       1.0  0.36152  0.84014  0.31351  1.0000
  H   H27       1.0  0.18072  0.63724  0.38368  1.0000
  H   H28       1.0  0.48764  0.64947  0.30895  1.0000
  H   H29       1.0  0.51923  0.60732  0.30480  1.0000
  H   H30       1.0  0.10710  0.60616  0.37848  1.0000
  H   H31       1.0  0.42417  0.65073  0.39191  1.0000
  H   H32       1.0  0.36077  0.77530  0.39445  1.0000
  H   H33       1.0  0.23551  0.58614  0.39094  1.0000
  C   C54       1.0  0.55322  0.09206  0.33383  1.0000
  C   C55       1.0  0.60054  0.18073  0.34670  1.0000
  C   C56       1.0  0.61799  0.15596  0.37038  1.0000
  C   C57       1.0  0.59471  0.11246  0.36439  1.0000
  C   C58       1.0  0.62410  0.22373  0.35594  1.0000
  C   C59       1.0  0.60824  0.38683  0.35486  1.0000
  C   C60       1.0  0.54653  0.39282  0.36764  1.0000
  C   C61       1.0  0.54781  0.45792  0.33264  1.0000
  C   C62       1.0  0.52641  0.41616  0.36166  1.0000
  C   C63       1.0  0.78753  0.40369  0.35486  1.0000
  C   C64       1.0  0.85077  0.40075  0.32174  1.0000
  C   C65       1.0  0.91904  0.46373  0.33346  1.0000
  C   C66       1.0  0.89423  0.42086  0.31536  1.0000
  H   H34       1.0  0.60861  0.09575  0.38193  1.0000
  H   H35       1.0  0.64798  0.16942  0.39242  1.0000
  H   H36       1.0  0.83410  0.36952  0.31011  1.0000
  H   H37       1.0  0.52977  0.36264  0.38854  1.0000
  H   H38       1.0  0.49566  0.40213  0.37803  1.0000
  H   H39       1.0  0.90766  0.40349  0.30014  1.0000
  H   H40       1.0  0.59966  0.36737  0.40681  1.0000
  H   H41       1.0  0.64325  0.23467  0.40837  1.0000
  H   H42       1.0  0.77668  0.41281  0.40587  1.0000
  C   C67       1.0  0.48495  0.52636  0.34025  1.0000
  C   C68       1.0  0.52731  0.48157  0.32993  1.0000
  N   N7        1.0  0.50311  0.47841  0.40144  1.0000
  C   C69       1.0  0.48184  0.49896  0.40999  1.0000
  C   C70       1.0  0.46202  0.49387  0.48517  1.0000
  N   N8        1.0  0.44461  0.48942  0.55166  1.0000
  C   C71       1.0  0.48474  0.96066  0.34164  1.0000
  C   C72       1.0  0.52960  0.04785  0.33113  1.0000
  N   N9        1.0  0.53241  0.02682  0.40311  1.0000
  C   C73       1.0  0.51183  0.98497  0.41174  1.0000
  C   C74       1.0  0.51658  0.97019  0.48720  1.0000
  N   N10       1.0  0.52069  0.95714  0.55392  1.0000
  C   C75       1.0  0.05035  0.52636  0.34154  1.0000
  C   C76       1.0  0.96318  0.48413  0.33097  1.0000
  N   N11       1.0  0.98424  0.50864  0.40211  1.0000
  C   C77       1.0  0.02607  0.52986  0.41075  1.0000
  C   C78       1.0  0.04068  0.54972  0.48594  1.0000
  N   N12       1.0  0.05350  0.56714  0.55250  1.0000
