data_image0
_chemical_formula_structural       C7H2NHC3H2NHC3H2NHC5H3C2O3C5H3C2O3C4H3CH3NHC4H3CH3NHC4H3CH3NHC7H2NHC3H2NHC3H2NHC5H3C2O3C5H3C2O3C4H3CH3NHC4H3CH3NHC4H3CH3NHC7H2NHC3H2NHC3H2NHC5H3C2O3C5H3C2O3C4H3CH3NHC4H3CH3NHC4H3CH3NHC7H2NHC3H2NHC3H2NHC5H3C2O3C5H3C2O3C4H3CH3NHC4H3CH3NHC4H3CH3NH
_chemical_formula_sum              "C168 H144 N24 O24"
_cell_length_a       43.971
_cell_length_b       43.971
_cell_length_c       15.0449
_cell_angle_alpha    90
_cell_angle_beta     90
_cell_angle_gamma    120

_space_group_name_H-M_alt    "P 1"
_space_group_IT_number       1

loop_
  _space_group_symop_operation_xyz
  'x, y, z'

loop_
  _atom_site_type_symbol
  _atom_site_label
  _atom_site_symmetry_multiplicity
  _atom_site_fract_x
  _atom_site_fract_y
  _atom_site_fract_z
  _atom_site_occupancy
  C   C1        1.0  0.19417  0.32664  0.36694  1.0000
  C   C2        1.0  0.22390  0.32190  0.36632  1.0000
  C   C3        1.0  0.31121  0.18292  0.26524  1.0000
  C   C4        1.0  0.29139  0.19989  0.28059  1.0000
  C   C5        1.0  0.28964  0.25215  0.32316  1.0000
  C   C6        1.0  0.29078  0.28047  0.27631  1.0000
  C   C7        1.0  0.27013  0.29482  0.30264  1.0000
  H   H1        1.0  0.26816  0.31156  0.25900  1.0000
  H   H2        1.0  0.30331  0.28800  0.21615  1.0000
  N   N1        1.0  0.30544  0.23546  0.28417  1.0000
  H   H3        1.0  0.32443  0.24896  0.24226  1.0000
  C   C8        1.0  0.24409  0.03674  0.32331  1.0000
  C   C9        1.0  0.21565  0.00960  0.27671  1.0000
  C   C10       1.0  0.20128  0.47459  0.30306  1.0000
  H   H4        1.0  0.18463  0.45588  0.25926  1.0000
  H   H5        1.0  0.20817  0.01453  0.21639  1.0000
  N   N2        1.0  0.26083  0.06920  0.28416  1.0000
  H   H6        1.0  0.24732  0.07473  0.24234  1.0000
  C   C11       1.0  0.45954  0.20665  0.32305  1.0000
  C   C12       1.0  0.48674  0.20555  0.27619  1.0000
  C   C13       1.0  0.02173  0.22620  0.30259  1.0000
  H   H7        1.0  0.04046  0.22820  0.25897  1.0000
  H   H8        1.0  0.48177  0.19304  0.21601  1.0000
  N   N3        1.0  0.42704  0.19078  0.28409  1.0000
  H   H9        1.0  0.42159  0.17187  0.24196  1.0000
  C   C14       1.0  0.16964  0.36681  0.36699  1.0000
  C   C15       1.0  0.13555  0.33693  0.36591  1.0000
  C   C16       1.0  0.12947  0.30211  0.36704  1.0000
  C   C17       1.0  0.15935  0.29790  0.36583  1.0000
  C   C18       1.0  0.19837  0.36073  0.36583  1.0000
  H   H10       1.0  0.15548  0.27304  0.36213  1.0000
  H   H11       1.0  0.22323  0.38172  0.36206  1.0000
  H   H12       1.0  0.11455  0.34079  0.36225  1.0000
  C   C19       1.0  0.17436  0.40127  0.36646  1.0000
  C   C20       1.0  0.09500  0.27238  0.36646  1.0000
  O   O1        1.0  0.25613  0.35060  0.35442  1.0000
  O   O2        1.0  0.14565  0.40480  0.35477  1.0000
  O   O3        1.0  0.09146  0.24015  0.35455  1.0000
  C   C21       1.0  0.31336  0.12752  0.26528  1.0000
  C   C22       1.0  0.35048  0.14789  0.26395  1.0000
  C   C23       1.0  0.36877  0.18507  0.26513  1.0000
  C   C24       1.0  0.34838  0.20181  0.26404  1.0000
  C   C25       1.0  0.29447  0.14580  0.26412  1.0000
  H   H13       1.0  0.36107  0.22850  0.26969  1.0000
  H   H14       1.0  0.26777  0.13179  0.26984  1.0000
  H   H15       1.0  0.36450  0.13521  0.26963  1.0000
  C   C26       1.0  0.29639  0.09073  0.28053  1.0000
  C   C27       1.0  0.40556  0.20489  0.28035  1.0000
  O   O4        1.0  0.25649  0.17976  0.29784  1.0000
  O   O5        1.0  0.31651  0.07595  0.29778  1.0000
  O   O6        1.0  0.42033  0.23978  0.29770  1.0000
  C   C28       1.0  0.24823  0.28226  0.37844  1.0000
  C   C29       1.0  0.25079  0.25725  0.43426  1.0000
  C   C30       1.0  0.27225  0.24278  0.40742  1.0000
  C   C31       1.0  0.23283  0.24746  0.52314  1.0000
  H   H16       1.0  0.21946  0.26168  0.54165  1.0000
  H   H17       1.0  0.25189  0.25314  0.57599  1.0000
  H   H18       1.0  0.21352  0.21947  0.52403  1.0000
  C   C32       1.0  0.27923  0.22074  0.47122  1.0000
  H   H19       1.0  0.29889  0.21440  0.44848  1.0000
  H   H20       1.0  0.25499  0.19618  0.48445  1.0000
  H   H21       1.0  0.28954  0.23478  0.53360  1.0000
  N   N4        1.0  0.22296  0.29146  0.39039  1.0000
  H   H22       1.0  0.20181  0.27421  0.42027  1.0000
  C   C33       1.0  0.21394  0.46524  0.37865  1.0000
  C   C34       1.0  0.23902  0.49281  0.43437  1.0000
  C   C35       1.0  0.25350  0.02873  0.40751  1.0000
  C   C36       1.0  0.24888  0.48463  0.52313  1.0000
  H   H23       1.0  0.23462  0.45704  0.54167  1.0000
  H   H24       1.0  0.24329  0.49803  0.57609  1.0000
  H   H25       1.0  0.27686  0.49325  0.52380  1.0000
  C   C37       1.0  0.27563  0.05775  0.47121  1.0000
  H   H26       1.0  0.28198  0.08375  0.44848  1.0000
  H   H27       1.0  0.30019  0.05804  0.48428  1.0000
  H   H28       1.0  0.26165  0.05405  0.53370  1.0000
  N   N5        1.0  0.20480  0.43078  0.39043  1.0000
  H   H29       1.0  0.22210  0.42690  0.42013  1.0000
  C   C38       1.0  0.03104  0.24806  0.37847  1.0000
  C   C39       1.0  0.00344  0.24547  0.43425  1.0000
  C   C40       1.0  0.46752  0.22400  0.40735  1.0000
  C   C41       1.0  0.01157  0.26339  0.52317  1.0000
  H   H30       1.0  0.03916  0.27677  0.54173  1.0000
  H   H31       1.0  0.99820  0.24432  0.57598  1.0000
  H   H32       1.0  0.00288  0.28269  0.52408  1.0000
  C   C42       1.0  0.43848  0.21699  0.47111  1.0000
  H   H33       1.0  0.41249  0.19734  0.44831  1.0000
  H   H34       1.0  0.43815  0.24121  0.48442  1.0000
  H   H35       1.0  0.44220  0.20665  0.53348  1.0000
  N   N6        1.0  0.06550  0.27332  0.39051  1.0000
  H   H36       1.0  0.06939  0.29446  0.42042  1.0000
  C   C43       1.0  0.19417  0.82664  0.36694  1.0000
  C   C44       1.0  0.22390  0.82190  0.36632  1.0000
  C   C45       1.0  0.31121  0.68292  0.26524  1.0000
  C   C46       1.0  0.29139  0.69989  0.28059  1.0000
  C   C47       1.0  0.28964  0.75215  0.32316  1.0000
  C   C48       1.0  0.29078  0.78047  0.27631  1.0000
  C   C49       1.0  0.27013  0.79482  0.30264  1.0000
  H   H37       1.0  0.26816  0.81156  0.25900  1.0000
  H   H38       1.0  0.30331  0.78800  0.21615  1.0000
  N   N7        1.0  0.30544  0.73546  0.28417  1.0000
  H   H39       1.0  0.32443  0.74896  0.24226  1.0000
  C   C50       1.0  0.24409  0.53674  0.32331  1.0000
  C   C51       1.0  0.21565  0.50960  0.27671  1.0000
  C   C52       1.0  0.20128  0.97459  0.30306  1.0000
  H   H40       1.0  0.18463  0.95588  0.25926  1.0000
  H   H41       1.0  0.20817  0.51453  0.21639  1.0000
  N   N8        1.0  0.26083  0.56920  0.28416  1.0000
  H   H42       1.0  0.24732  0.57473  0.24234  1.0000
  C   C53       1.0  0.45954  0.70665  0.32305  1.0000
  C   C54       1.0  0.48674  0.70555  0.27619  1.0000
  C   C55       1.0  0.02173  0.72620  0.30259  1.0000
  H   H43       1.0  0.04046  0.72820  0.25897  1.0000
  H   H44       1.0  0.48177  0.69304  0.21601  1.0000
  N   N9        1.0  0.42703  0.69078  0.28409  1.0000
  H   H45       1.0  0.42159  0.67187  0.24196  1.0000
  C   C56       1.0  0.16964  0.86681  0.36699  1.0000
  C   C57       1.0  0.13555  0.83693  0.36591  1.0000
  C   C58       1.0  0.12947  0.80211  0.36704  1.0000
  C   C59       1.0  0.15935  0.79790  0.36583  1.0000
  C   C60       1.0  0.19837  0.86072  0.36583  1.0000
  H   H46       1.0  0.15548  0.77304  0.36213  1.0000
  H   H47       1.0  0.22323  0.88172  0.36206  1.0000
  H   H48       1.0  0.11455  0.84079  0.36225  1.0000
  C   C61       1.0  0.17436  0.90127  0.36646  1.0000
  C   C62       1.0  0.09500  0.77238  0.36646  1.0000
  O   O7        1.0  0.25613  0.85060  0.35442  1.0000
  O   O8        1.0  0.14565  0.90480  0.35477  1.0000
  O   O9        1.0  0.09146  0.74015  0.35455  1.0000
  C   C63       1.0  0.31336  0.62752  0.26528  1.0000
  C   C64       1.0  0.35048  0.64789  0.26395  1.0000
  C   C65       1.0  0.36877  0.68507  0.26513  1.0000
  C   C66       1.0  0.34838  0.70181  0.26404  1.0000
  C   C67       1.0  0.29447  0.64580  0.26412  1.0000
  H   H49       1.0  0.36107  0.72850  0.26969  1.0000
  H   H50       1.0  0.26777  0.63179  0.26984  1.0000
  H   H51       1.0  0.36449  0.63521  0.26963  1.0000
  C   C68       1.0  0.29639  0.59073  0.28053  1.0000
  C   C69       1.0  0.40556  0.70489  0.28035  1.0000
  O   O10       1.0  0.25649  0.67976  0.29784  1.0000
  O   O11       1.0  0.31652  0.57595  0.29778  1.0000
  O   O12       1.0  0.42033  0.73978  0.29770  1.0000
  C   C70       1.0  0.24823  0.78226  0.37844  1.0000
  C   C71       1.0  0.25079  0.75725  0.43426  1.0000
  C   C72       1.0  0.27225  0.74278  0.40742  1.0000
  C   C73       1.0  0.23283  0.74745  0.52314  1.0000
  H   H52       1.0  0.21946  0.76168  0.54165  1.0000
  H   H53       1.0  0.25189  0.75314  0.57599  1.0000
  H   H54       1.0  0.21352  0.71946  0.52403  1.0000
  C   C74       1.0  0.27923  0.72074  0.47122  1.0000
  H   H55       1.0  0.29889  0.71440  0.44848  1.0000
  H   H56       1.0  0.25499  0.69618  0.48445  1.0000
  H   H57       1.0  0.28954  0.73478  0.53360  1.0000
  N   N10       1.0  0.22296  0.79146  0.39039  1.0000
  H   H58       1.0  0.20181  0.77421  0.42027  1.0000
  C   C75       1.0  0.21394  0.96524  0.37865  1.0000
  C   C76       1.0  0.23902  0.99281  0.43437  1.0000
  C   C77       1.0  0.25350  0.52873  0.40751  1.0000
  C   C78       1.0  0.24888  0.98463  0.52313  1.0000
  H   H59       1.0  0.23462  0.95703  0.54167  1.0000
  H   H60       1.0  0.24329  0.99803  0.57609  1.0000
  H   H61       1.0  0.27686  0.99325  0.52380  1.0000
  C   C79       1.0  0.27563  0.55775  0.47121  1.0000
  H   H62       1.0  0.28198  0.58375  0.44848  1.0000
  H   H63       1.0  0.30019  0.55804  0.48428  1.0000
  H   H64       1.0  0.26165  0.55405  0.53370  1.0000
  N   N11       1.0  0.20481  0.93079  0.39043  1.0000
  H   H65       1.0  0.22210  0.92690  0.42013  1.0000
  C   C80       1.0  0.03104  0.74806  0.37847  1.0000
  C   C81       1.0  0.00344  0.74547  0.43425  1.0000
  C   C82       1.0  0.46752  0.72400  0.40735  1.0000
  C   C83       1.0  0.01157  0.76340  0.52317  1.0000
  H   H66       1.0  0.03916  0.77677  0.54173  1.0000
  H   H67       1.0  0.99820  0.74432  0.57598  1.0000
  H   H68       1.0  0.00288  0.78269  0.52408  1.0000
  C   C84       1.0  0.43848  0.71698  0.47111  1.0000
  H   H69       1.0  0.41249  0.69734  0.44831  1.0000
  H   H70       1.0  0.43815  0.74121  0.48442  1.0000
  H   H71       1.0  0.44220  0.70665  0.53348  1.0000
  N   N12       1.0  0.06550  0.77332  0.39051  1.0000
  H   H72       1.0  0.06939  0.79446  0.42042  1.0000
  C   C85       1.0  0.69417  0.32664  0.36694  1.0000
  C   C86       1.0  0.72390  0.32190  0.36632  1.0000
  C   C87       1.0  0.81121  0.18292  0.26524  1.0000
  C   C88       1.0  0.79139  0.19989  0.28059  1.0000
  C   C89       1.0  0.78964  0.25215  0.32316  1.0000
  C   C90       1.0  0.79078  0.28047  0.27631  1.0000
  C   C91       1.0  0.77013  0.29482  0.30264  1.0000
  H   H73       1.0  0.76816  0.31156  0.25900  1.0000
  H   H74       1.0  0.80331  0.28800  0.21615  1.0000
  N   N13       1.0  0.80544  0.23546  0.28417  1.0000
  H   H75       1.0  0.82443  0.24896  0.24226  1.0000
  C   C92       1.0  0.74409  0.03674  0.32331  1.0000
  C   C93       1.0  0.71565  0.00960  0.27671  1.0000
  C   C94       1.0  0.70128  0.47459  0.30306  1.0000
  H   H76       1.0  0.68463  0.45588  0.25926  1.0000
  H   H77       1.0  0.70817  0.01453  0.21639  1.0000
  N   N14       1.0  0.76083  0.06920  0.28416  1.0000
  H   H78       1.0  0.74732  0.07473  0.24234  1.0000
  C   C95       1.0  0.95954  0.20665  0.32305  1.0000
  C   C96       1.0  0.98674  0.20555  0.27619  1.0000
  C   C97       1.0  0.52172  0.22620  0.30259  1.0000
  H   H79       1.0  0.54046  0.22820  0.25897  1.0000
  H   H80       1.0  0.98177  0.19304  0.21601  1.0000
  N   N15       1.0  0.92704  0.19078  0.28409  1.0000
  H   H81       1.0  0.92159  0.17187  0.24196  1.0000
  C   C98       1.0  0.66964  0.36681  0.36699  1.0000
  C   C99       1.0  0.63555  0.33693  0.36591  1.0000
  C   C100      1.0  0.62947  0.30211  0.36704  1.0000
  C   C101      1.0  0.65935  0.29790  0.36583  1.0000
  C   C102      1.0  0.69837  0.36073  0.36583  1.0000
  H   H82       1.0  0.65548  0.27304  0.36213  1.0000
  H   H83       1.0  0.72323  0.38172  0.36206  1.0000
  H   H84       1.0  0.61455  0.34079  0.36225  1.0000
  C   C103      1.0  0.67435  0.40127  0.36646  1.0000
  C   C104      1.0  0.59500  0.27238  0.36646  1.0000
  O   O13       1.0  0.75613  0.35060  0.35442  1.0000
  O   O14       1.0  0.64565  0.40480  0.35477  1.0000
  O   O15       1.0  0.59146  0.24015  0.35455  1.0000
  C   C105      1.0  0.81336  0.12752  0.26528  1.0000
  C   C106      1.0  0.85048  0.14789  0.26395  1.0000
  C   C107      1.0  0.86877  0.18507  0.26513  1.0000
  C   C108      1.0  0.84838  0.20181  0.26404  1.0000
  C   C109      1.0  0.79447  0.14580  0.26412  1.0000
  H   H85       1.0  0.86107  0.22850  0.26969  1.0000
  H   H86       1.0  0.76777  0.13179  0.26984  1.0000
  H   H87       1.0  0.86450  0.13521  0.26963  1.0000
  C   C110      1.0  0.79639  0.09073  0.28053  1.0000
  C   C111      1.0  0.90556  0.20489  0.28035  1.0000
  O   O16       1.0  0.75649  0.17976  0.29784  1.0000
  O   O17       1.0  0.81651  0.07595  0.29778  1.0000
  O   O18       1.0  0.92033  0.23978  0.29770  1.0000
  C   C112      1.0  0.74823  0.28226  0.37844  1.0000
  C   C113      1.0  0.75079  0.25725  0.43426  1.0000
  C   C114      1.0  0.77225  0.24278  0.40742  1.0000
  C   C115      1.0  0.73283  0.24746  0.52314  1.0000
  H   H88       1.0  0.71947  0.26168  0.54165  1.0000
  H   H89       1.0  0.75189  0.25314  0.57599  1.0000
  H   H90       1.0  0.71352  0.21947  0.52403  1.0000
  C   C116      1.0  0.77923  0.22074  0.47122  1.0000
  H   H91       1.0  0.79888  0.21440  0.44848  1.0000
  H   H92       1.0  0.75499  0.19618  0.48445  1.0000
  H   H93       1.0  0.78954  0.23478  0.53360  1.0000
  N   N16       1.0  0.72296  0.29146  0.39039  1.0000
  H   H94       1.0  0.70181  0.27421  0.42027  1.0000
  C   C117      1.0  0.71394  0.46524  0.37865  1.0000
  C   C118      1.0  0.73901  0.49281  0.43437  1.0000
  C   C119      1.0  0.75350  0.02873  0.40751  1.0000
  C   C120      1.0  0.74888  0.48463  0.52313  1.0000
  H   H95       1.0  0.73462  0.45704  0.54167  1.0000
  H   H96       1.0  0.74329  0.49803  0.57609  1.0000
  H   H97       1.0  0.77685  0.49325  0.52380  1.0000
  C   C121      1.0  0.77563  0.05775  0.47121  1.0000
  H   H98       1.0  0.78198  0.08375  0.44848  1.0000
  H   H99       1.0  0.80019  0.05804  0.48428  1.0000
  H   H100      1.0  0.76165  0.05405  0.53370  1.0000
  N   N17       1.0  0.70480  0.43078  0.39043  1.0000
  H   H101      1.0  0.72210  0.42690  0.42013  1.0000
  C   C122      1.0  0.53104  0.24806  0.37847  1.0000
  C   C123      1.0  0.50344  0.24547  0.43425  1.0000
  C   C124      1.0  0.96752  0.22400  0.40735  1.0000
  C   C125      1.0  0.51157  0.26339  0.52317  1.0000
  H   H102      1.0  0.53916  0.27677  0.54173  1.0000
  H   H103      1.0  0.49820  0.24432  0.57598  1.0000
  H   H104      1.0  0.50288  0.28269  0.52408  1.0000
  C   C126      1.0  0.93848  0.21699  0.47111  1.0000
  H   H105      1.0  0.91249  0.19734  0.44831  1.0000
  H   H106      1.0  0.93815  0.24121  0.48442  1.0000
  H   H107      1.0  0.94220  0.20665  0.53348  1.0000
  N   N18       1.0  0.56550  0.27332  0.39051  1.0000
  H   H108      1.0  0.56939  0.29446  0.42042  1.0000
  C   C127      1.0  0.69417  0.82664  0.36694  1.0000
  C   C128      1.0  0.72390  0.82190  0.36632  1.0000
  C   C129      1.0  0.81121  0.68292  0.26524  1.0000
  C   C130      1.0  0.79139  0.69989  0.28059  1.0000
  C   C131      1.0  0.78964  0.75215  0.32316  1.0000
  C   C132      1.0  0.79078  0.78047  0.27631  1.0000
  C   C133      1.0  0.77013  0.79482  0.30264  1.0000
  H   H109      1.0  0.76816  0.81156  0.25900  1.0000
  H   H110      1.0  0.80331  0.78800  0.21615  1.0000
  N   N19       1.0  0.80544  0.73546  0.28417  1.0000
  H   H111      1.0  0.82443  0.74896  0.24226  1.0000
  C   C134      1.0  0.74409  0.53674  0.32331  1.0000
  C   C135      1.0  0.71565  0.50960  0.27671  1.0000
  C   C136      1.0  0.70128  0.97459  0.30306  1.0000
  H   H112      1.0  0.68463  0.95588  0.25926  1.0000
  H   H113      1.0  0.70817  0.51453  0.21639  1.0000
  N   N20       1.0  0.76083  0.56920  0.28416  1.0000
  H   H114      1.0  0.74732  0.57473  0.24234  1.0000
  C   C137      1.0  0.95954  0.70665  0.32305  1.0000
  C   C138      1.0  0.98674  0.70555  0.27619  1.0000
  C   C139      1.0  0.52172  0.72620  0.30259  1.0000
  H   H115      1.0  0.54046  0.72820  0.25897  1.0000
  H   H116      1.0  0.98177  0.69304  0.21601  1.0000
  N   N21       1.0  0.92704  0.69078  0.28409  1.0000
  H   H117      1.0  0.92159  0.67187  0.24196  1.0000
  C   C140      1.0  0.66964  0.86681  0.36699  1.0000
  C   C141      1.0  0.63555  0.83693  0.36591  1.0000
  C   C142      1.0  0.62947  0.80211  0.36704  1.0000
  C   C143      1.0  0.65935  0.79790  0.36583  1.0000
  C   C144      1.0  0.69837  0.86072  0.36583  1.0000
  H   H118      1.0  0.65548  0.77304  0.36213  1.0000
  H   H119      1.0  0.72323  0.88172  0.36206  1.0000
  H   H120      1.0  0.61455  0.84079  0.36225  1.0000
  C   C145      1.0  0.67436  0.90127  0.36646  1.0000
  C   C146      1.0  0.59500  0.77238  0.36646  1.0000
  O   O19       1.0  0.75613  0.85060  0.35442  1.0000
  O   O20       1.0  0.64565  0.90480  0.35477  1.0000
  O   O21       1.0  0.59146  0.74015  0.35455  1.0000
  C   C147      1.0  0.81336  0.62752  0.26528  1.0000
  C   C148      1.0  0.85049  0.64789  0.26395  1.0000
  C   C149      1.0  0.86877  0.68507  0.26513  1.0000
  C   C150      1.0  0.84838  0.70181  0.26404  1.0000
  C   C151      1.0  0.79446  0.64580  0.26412  1.0000
  H   H121      1.0  0.86107  0.72850  0.26969  1.0000
  H   H122      1.0  0.76777  0.63179  0.26984  1.0000
  H   H123      1.0  0.86450  0.63521  0.26963  1.0000
  C   C152      1.0  0.79639  0.59073  0.28053  1.0000
  C   C153      1.0  0.90556  0.70489  0.28035  1.0000
  O   O22       1.0  0.75649  0.67976  0.29784  1.0000
  O   O23       1.0  0.81652  0.57595  0.29778  1.0000
  O   O24       1.0  0.92033  0.73978  0.29770  1.0000
  C   C154      1.0  0.74823  0.78226  0.37844  1.0000
  C   C155      1.0  0.75079  0.75725  0.43426  1.0000
  C   C156      1.0  0.77225  0.74278  0.40742  1.0000
  C   C157      1.0  0.73283  0.74745  0.52314  1.0000
  H   H124      1.0  0.71946  0.76168  0.54165  1.0000
  H   H125      1.0  0.75188  0.75314  0.57599  1.0000
  H   H126      1.0  0.71352  0.71946  0.52403  1.0000
  C   C158      1.0  0.77922  0.72074  0.47122  1.0000
  H   H127      1.0  0.79889  0.71440  0.44848  1.0000
  H   H128      1.0  0.75499  0.69618  0.48445  1.0000
  H   H129      1.0  0.78954  0.73478  0.53360  1.0000
  N   N22       1.0  0.72296  0.79146  0.39039  1.0000
  H   H130      1.0  0.70181  0.77421  0.42027  1.0000
  C   C159      1.0  0.71394  0.96524  0.37865  1.0000
  C   C160      1.0  0.73902  0.99281  0.43437  1.0000
  C   C161      1.0  0.75350  0.52873  0.40751  1.0000
  C   C162      1.0  0.74888  0.98463  0.52313  1.0000
  H   H131      1.0  0.73462  0.95703  0.54167  1.0000
  H   H132      1.0  0.74329  0.99803  0.57609  1.0000
  H   H133      1.0  0.77686  0.99325  0.52380  1.0000
  C   C163      1.0  0.77563  0.55775  0.47121  1.0000
  H   H134      1.0  0.78198  0.58375  0.44848  1.0000
  H   H135      1.0  0.80019  0.55804  0.48428  1.0000
  H   H136      1.0  0.76165  0.55405  0.53370  1.0000
  N   N23       1.0  0.70481  0.93079  0.39043  1.0000
  H   H137      1.0  0.72210  0.92690  0.42013  1.0000
  C   C164      1.0  0.53104  0.74806  0.37847  1.0000
  C   C165      1.0  0.50344  0.74547  0.43425  1.0000
  C   C166      1.0  0.96752  0.72400  0.40735  1.0000
  C   C167      1.0  0.51157  0.76340  0.52317  1.0000
  H   H138      1.0  0.53916  0.77677  0.54173  1.0000
  H   H139      1.0  0.49820  0.74432  0.57598  1.0000
  H   H140      1.0  0.50288  0.78269  0.52408  1.0000
  C   C168      1.0  0.93848  0.71698  0.47111  1.0000
  H   H141      1.0  0.91249  0.69734  0.44831  1.0000
  H   H142      1.0  0.93815  0.74121  0.48442  1.0000
  H   H143      1.0  0.94220  0.70665  0.53348  1.0000
  N   N24       1.0  0.56550  0.77332  0.39051  1.0000
  H   H144      1.0  0.56939  0.79446  0.42042  1.0000
