data_image0
_chemical_formula_structural       SiC12H8C6HC2NHCHO2HNH2CO2HC12H7CHCO4CNC3H2CO2NHC2NC8NH3CO2HNHNHSiC12H8C6HC2NHCHO2HNH2CO2HC12H7CHCO4CNC3H2CO2NHC2NC8NH3CO2HNHNHSiC12H8C6HC2NHCHO2HNH2CO2HC12H7CHCO4CNC3H2CO2NHC2NC8NH3CO2HNHNHSiC12H8C6HC2NHCHO2HNH2CO2HC12H7CHCO4CNC3H2CO2NHC2NC8NH3CO2HNHNH
_chemical_formula_sum              "Si4 C208 H128 N32 O48"
_cell_length_a       37.6974
_cell_length_b       37.6956
_cell_length_c       15.0211
_cell_angle_alpha    90
_cell_angle_beta     90
_cell_angle_gamma    90.1859

_space_group_name_H-M_alt    "P 1"
_space_group_IT_number       1

loop_
  _space_group_symop_operation_xyz
  'x, y, z'

loop_
  _atom_site_type_symbol
  _atom_site_label
  _atom_site_symmetry_multiplicity
  _atom_site_fract_x
  _atom_site_fract_y
  _atom_site_fract_z
  _atom_site_occupancy
  Si  Si1       1.0  0.50195  0.48925  0.06173  1.0000
  C   C1        1.0  0.49470  0.45681  0.13469  1.0000
  C   C2        1.0  0.00699  0.02312  0.13178  1.0000
  C   C3        1.0  0.47670  0.03739  0.17434  1.0000
  C   C4        1.0  0.47995  0.06392  0.23920  1.0000
  C   C5        1.0  0.01357  0.07756  0.26326  1.0000
  C   C6        1.0  0.04401  0.06166  0.22558  1.0000
  C   C7        1.0  0.04077  0.03453  0.16169  1.0000
  C   C8        1.0  0.02384  0.44415  0.18483  1.0000
  C   C9        1.0  0.01890  0.42810  0.26841  1.0000
  C   C10       1.0  0.48474  0.42475  0.30702  1.0000
  C   C11       1.0  0.45557  0.43626  0.25514  1.0000
  C   C12       1.0  0.46037  0.45195  0.17103  1.0000
  H   H1        1.0  0.45725  0.07382  0.26700  1.0000
  H   H2        1.0  0.45162  0.02907  0.15826  1.0000
  H   H3        1.0  0.06886  0.07064  0.24141  1.0000
  H   H4        1.0  0.06355  0.02366  0.13684  1.0000
  H   H5        1.0  0.04940  0.44887  0.16478  1.0000
  H   H6        1.0  0.04116  0.42094  0.30256  1.0000
  H   H7        1.0  0.43028  0.43489  0.27962  1.0000
  H   H8        1.0  0.43849  0.46245  0.14065  1.0000
  C   C13       1.0  0.01635  0.10876  0.31628  1.0000
  C   C14       1.0  0.47926  0.41012  0.39423  1.0000
  C   C15       1.0  0.00034  0.17070  0.32452  1.0000
  C   C16       1.0  0.00713  0.24284  0.36880  1.0000
  C   C17       1.0  0.50206  0.23323  0.27812  1.0000
  C   C18       1.0  0.49856  0.19690  0.25760  1.0000
  H   H9        1.0  0.49464  0.18923  0.19282  1.0000
  C   C19       1.0  0.00688  0.27851  0.39783  1.0000
  C   C20       1.0  0.47578  0.33332  0.38367  1.0000
  N   N1        1.0  0.47923  0.29825  0.36878  1.0000
  H   H10       1.0  0.45478  0.34558  0.35422  1.0000
  C   C21       1.0  0.50180  0.25794  0.20986  1.0000
  H   H11       1.0  0.08702  0.26857  0.36976  1.0000
  O   O1        1.0  0.47539  0.25925  0.16233  1.0000
  O   O2        1.0  0.03089  0.26691  0.17941  1.0000
  H   H12       1.0  0.03364  0.28049  0.13175  1.0000
  N   N2        1.0  0.49373  0.13632  0.30188  1.0000
  H   H13       1.0  0.47527  0.13319  0.25695  1.0000
  H   H14       1.0  0.34342  0.48931  0.24871  1.0000
  C   C22       1.0  0.27846  0.49532  0.18879  1.0000
  O   O3        1.0  0.27255  0.46545  0.16013  1.0000
  O   O4        1.0  0.26308  0.02096  0.15512  1.0000
  H   H15       1.0  0.25315  0.02070  0.10165  1.0000
  C   C23       1.0  0.08641  0.47287  0.51971  1.0000
  C   C24       1.0  0.07081  0.44352  0.56361  1.0000
  C   C25       1.0  0.04539  0.44832  0.63120  1.0000
  C   C26       1.0  0.03612  0.48275  0.66053  1.0000
  C   C27       1.0  0.05181  0.01209  0.61652  1.0000
  C   C28       1.0  0.07674  0.00725  0.54826  1.0000
  C   C29       1.0  0.46941  0.99715  0.65642  1.0000
  C   C30       1.0  0.46456  0.03177  0.62201  1.0000
  C   C31       1.0  0.43934  0.03853  0.55549  1.0000
  C   C32       1.0  0.41826  0.01096  0.51948  1.0000
  C   C33       1.0  0.42417  0.47609  0.55129  1.0000
  C   C34       1.0  0.44982  0.46917  0.61714  1.0000
  H   H16       1.0  0.45335  0.44346  0.63721  1.0000
  H   H17       1.0  0.40898  0.45535  0.52948  1.0000
  H   H18       1.0  0.43637  0.06416  0.53429  1.0000
  H   H19       1.0  0.47914  0.05283  0.64489  1.0000
  H   H20       1.0  0.04523  0.03760  0.63289  1.0000
  H   H21       1.0  0.03355  0.42624  0.65764  1.0000
  H   H22       1.0  0.07713  0.41820  0.54499  1.0000
  C   C35       1.0  0.38962  0.01937  0.46126  1.0000
  H   H23       1.0  0.08821  0.02935  0.52102  1.0000
  C   C36       1.0  0.11335  0.46785  0.45455  1.0000
  O   O5        1.0  0.44546  0.40543  0.42277  1.0000
  O   O6        1.0  0.04661  0.11430  0.36304  1.0000
  O   O7        1.0  0.37592  0.05255  0.46674  1.0000
  O   O8        1.0  0.13715  0.44190  0.47219  1.0000
  C   C37       1.0  0.00639  0.18181  0.41285  1.0000
  N   N3        1.0  0.00896  0.21692  0.43162  1.0000
  C   C38       1.0  0.03382  0.29519  0.44904  1.0000
  C   C39       1.0  0.03114  0.33217  0.46373  1.0000
  C   C40       1.0  0.00253  0.35239  0.42959  1.0000
  H   H24       1.0  0.05120  0.34507  0.49668  1.0000
  H   H25       1.0  0.00686  0.16391  0.46388  1.0000
  C   C41       1.0  0.06396  0.27773  0.47860  1.0000
  O   O9        1.0  0.06221  0.26428  0.55247  1.0000
  O   O10       1.0  0.08439  0.26270  0.42651  1.0000
  N   N4        1.0  0.00382  0.38905  0.43401  1.0000
  H   H26       1.0  0.02777  0.39867  0.43567  1.0000
  C   C42       1.0  0.33749  0.99894  0.38606  1.0000
  C   C43       1.0  0.31204  0.00549  0.45286  1.0000
  N   N5        1.0  0.27748  0.00848  0.43124  1.0000
  C   C44       1.0  0.26480  0.00579  0.34696  1.0000
  C   C45       1.0  0.28884  0.49803  0.27669  1.0000
  C   C46       1.0  0.32530  0.49440  0.29789  1.0000
  C   C47       1.0  0.22747  0.00788  0.33945  1.0000
  C   C48       1.0  0.20718  0.03560  0.37855  1.0000
  C   C49       1.0  0.17023  0.03043  0.38766  1.0000
  C   C50       1.0  0.15390  0.99844  0.36067  1.0000
  C   C51       1.0  0.17508  0.47284  0.31790  1.0000
  N   N6        1.0  0.21057  0.47801  0.31125  1.0000
  H   H27       1.0  0.15531  0.04904  0.42036  1.0000
  H   H28       1.0  0.16457  0.44903  0.29865  1.0000
  H   H29       1.0  0.31915  0.00765  0.51829  1.0000
  C   C52       1.0  0.22192  0.06686  0.41180  1.0000
  O   O11       1.0  0.22485  0.06894  0.49266  1.0000
  O   O12       1.0  0.24355  0.08458  0.36867  1.0000
  H   H30       1.0  0.24503  0.08456  0.30981  1.0000
  N   N7        1.0  0.11997  0.99151  0.38760  1.0000
  H   H31       1.0  0.10294  0.01060  0.37878  1.0000
  N   N8        1.0  0.37247  0.49546  0.40831  1.0000
  H   H32       1.0  0.38324  0.47253  0.39630  1.0000
  Si  Si2       1.0  0.50195  0.98925  0.06173  1.0000
  C   C53       1.0  0.49470  0.95681  0.13469  1.0000
  C   C54       1.0  0.00699  0.52312  0.13178  1.0000
  C   C55       1.0  0.47670  0.53739  0.17434  1.0000
  C   C56       1.0  0.47995  0.56392  0.23920  1.0000
  C   C57       1.0  0.01357  0.57756  0.26326  1.0000
  C   C58       1.0  0.04401  0.56166  0.22558  1.0000
  C   C59       1.0  0.04077  0.53453  0.16169  1.0000
  C   C60       1.0  0.02384  0.94415  0.18483  1.0000
  C   C61       1.0  0.01890  0.92810  0.26841  1.0000
  C   C62       1.0  0.48474  0.92475  0.30702  1.0000
  C   C63       1.0  0.45557  0.93626  0.25514  1.0000
  C   C64       1.0  0.46037  0.95195  0.17103  1.0000
  H   H33       1.0  0.45725  0.57382  0.26700  1.0000
  H   H34       1.0  0.45162  0.52907  0.15826  1.0000
  H   H35       1.0  0.06886  0.57064  0.24141  1.0000
  H   H36       1.0  0.06355  0.52366  0.13684  1.0000
  H   H37       1.0  0.04940  0.94887  0.16478  1.0000
  H   H38       1.0  0.04116  0.92094  0.30256  1.0000
  H   H39       1.0  0.43028  0.93489  0.27962  1.0000
  H   H40       1.0  0.43849  0.96245  0.14065  1.0000
  C   C65       1.0  0.01635  0.60876  0.31628  1.0000
  C   C66       1.0  0.47926  0.91012  0.39423  1.0000
  C   C67       1.0  0.00034  0.67070  0.32452  1.0000
  C   C68       1.0  0.00713  0.74284  0.36880  1.0000
  C   C69       1.0  0.50206  0.73323  0.27812  1.0000
  C   C70       1.0  0.49856  0.69690  0.25760  1.0000
  H   H41       1.0  0.49464  0.68923  0.19282  1.0000
  C   C71       1.0  0.00688  0.77851  0.39783  1.0000
  C   C72       1.0  0.47578  0.83332  0.38367  1.0000
  N   N9        1.0  0.47922  0.79825  0.36878  1.0000
  H   H42       1.0  0.45478  0.84558  0.35422  1.0000
  C   C73       1.0  0.50180  0.75794  0.20986  1.0000
  H   H43       1.0  0.08702  0.76857  0.36976  1.0000
  O   O13       1.0  0.47539  0.75925  0.16233  1.0000
  O   O14       1.0  0.03089  0.76690  0.17941  1.0000
  H   H44       1.0  0.03364  0.78049  0.13175  1.0000
  N   N10       1.0  0.49372  0.63632  0.30188  1.0000
  H   H45       1.0  0.47526  0.63319  0.25695  1.0000
  H   H46       1.0  0.34343  0.98931  0.24871  1.0000
  C   C74       1.0  0.27846  0.99531  0.18879  1.0000
  O   O15       1.0  0.27255  0.96545  0.16013  1.0000
  O   O16       1.0  0.26308  0.52096  0.15512  1.0000
  H   H47       1.0  0.25315  0.52070  0.10165  1.0000
  C   C75       1.0  0.08641  0.97287  0.51971  1.0000
  C   C76       1.0  0.07081  0.94352  0.56361  1.0000
  C   C77       1.0  0.04539  0.94832  0.63120  1.0000
  C   C78       1.0  0.03612  0.98275  0.66053  1.0000
  C   C79       1.0  0.05181  0.51209  0.61652  1.0000
  C   C80       1.0  0.07674  0.50725  0.54826  1.0000
  C   C81       1.0  0.46941  0.49715  0.65642  1.0000
  C   C82       1.0  0.46456  0.53177  0.62201  1.0000
  C   C83       1.0  0.43934  0.53853  0.55549  1.0000
  C   C84       1.0  0.41826  0.51096  0.51948  1.0000
  C   C85       1.0  0.42417  0.97609  0.55129  1.0000
  C   C86       1.0  0.44982  0.96917  0.61714  1.0000
  H   H48       1.0  0.45335  0.94346  0.63721  1.0000
  H   H49       1.0  0.40899  0.95535  0.52948  1.0000
  H   H50       1.0  0.43637  0.56417  0.53429  1.0000
  H   H51       1.0  0.47914  0.55283  0.64489  1.0000
  H   H52       1.0  0.04523  0.53760  0.63289  1.0000
  H   H53       1.0  0.03355  0.92624  0.65764  1.0000
  H   H54       1.0  0.07713  0.91820  0.54499  1.0000
  C   C87       1.0  0.38962  0.51937  0.46126  1.0000
  H   H55       1.0  0.08821  0.52935  0.52102  1.0000
  C   C88       1.0  0.11335  0.96785  0.45455  1.0000
  O   O17       1.0  0.44546  0.90543  0.42277  1.0000
  O   O18       1.0  0.04661  0.61430  0.36304  1.0000
  O   O19       1.0  0.37592  0.55255  0.46674  1.0000
  O   O20       1.0  0.13715  0.94190  0.47219  1.0000
  C   C89       1.0  0.00639  0.68182  0.41285  1.0000
  N   N11       1.0  0.00896  0.71692  0.43162  1.0000
  C   C90       1.0  0.03382  0.79519  0.44904  1.0000
  C   C91       1.0  0.03114  0.83217  0.46373  1.0000
  C   C92       1.0  0.00253  0.85239  0.42959  1.0000
  H   H56       1.0  0.05120  0.84508  0.49668  1.0000
  H   H57       1.0  0.00686  0.66391  0.46388  1.0000
  C   C93       1.0  0.06396  0.77773  0.47860  1.0000
  O   O21       1.0  0.06221  0.76428  0.55247  1.0000
  O   O22       1.0  0.08439  0.76270  0.42651  1.0000
  N   N12       1.0  0.00382  0.88905  0.43401  1.0000
  H   H58       1.0  0.02777  0.89867  0.43567  1.0000
  C   C94       1.0  0.33749  0.49894  0.38606  1.0000
  C   C95       1.0  0.31204  0.50550  0.45286  1.0000
  N   N13       1.0  0.27748  0.50848  0.43124  1.0000
  C   C96       1.0  0.26480  0.50579  0.34696  1.0000
  C   C97       1.0  0.28884  0.99804  0.27669  1.0000
  C   C98       1.0  0.32530  0.99440  0.29789  1.0000
  C   C99       1.0  0.22747  0.50788  0.33945  1.0000
  C   C100      1.0  0.20718  0.53561  0.37855  1.0000
  C   C101      1.0  0.17023  0.53043  0.38766  1.0000
  C   C102      1.0  0.15390  0.49844  0.36067  1.0000
  C   C103      1.0  0.17508  0.97284  0.31791  1.0000
  N   N14       1.0  0.21056  0.97801  0.31125  1.0000
  H   H59       1.0  0.15531  0.54904  0.42036  1.0000
  H   H60       1.0  0.16457  0.94903  0.29865  1.0000
  H   H61       1.0  0.31915  0.50765  0.51829  1.0000
  C   C104      1.0  0.22192  0.56686  0.41180  1.0000
  O   O23       1.0  0.22485  0.56894  0.49266  1.0000
  O   O24       1.0  0.24355  0.58459  0.36867  1.0000
  H   H62       1.0  0.24503  0.58456  0.30981  1.0000
  N   N15       1.0  0.11997  0.49151  0.38760  1.0000
  H   H63       1.0  0.10294  0.51061  0.37878  1.0000
  N   N16       1.0  0.37247  0.99546  0.40831  1.0000
  H   H64       1.0  0.38324  0.97253  0.39630  1.0000
  Si  Si3       1.0  0.00195  0.48925  0.06173  1.0000
  C   C105      1.0  0.99470  0.45681  0.13469  1.0000
  C   C106      1.0  0.50699  0.02312  0.13178  1.0000
  C   C107      1.0  0.97670  0.03739  0.17434  1.0000
  C   C108      1.0  0.97995  0.06392  0.23920  1.0000
  C   C109      1.0  0.51357  0.07756  0.26326  1.0000
  C   C110      1.0  0.54401  0.06166  0.22558  1.0000
  C   C111      1.0  0.54078  0.03453  0.16169  1.0000
  C   C112      1.0  0.52384  0.44415  0.18483  1.0000
  C   C113      1.0  0.51890  0.42810  0.26841  1.0000
  C   C114      1.0  0.98475  0.42475  0.30702  1.0000
  C   C115      1.0  0.95557  0.43626  0.25514  1.0000
  C   C116      1.0  0.96037  0.45195  0.17103  1.0000
  H   H65       1.0  0.95725  0.07382  0.26700  1.0000
  H   H66       1.0  0.95162  0.02907  0.15826  1.0000
  H   H67       1.0  0.56886  0.07064  0.24141  1.0000
  H   H68       1.0  0.56355  0.02366  0.13684  1.0000
  H   H69       1.0  0.54940  0.44887  0.16478  1.0000
  H   H70       1.0  0.54116  0.42094  0.30256  1.0000
  H   H71       1.0  0.93028  0.43489  0.27962  1.0000
  H   H72       1.0  0.93848  0.46245  0.14065  1.0000
  C   C117      1.0  0.51635  0.10876  0.31628  1.0000
  C   C118      1.0  0.97926  0.41012  0.39423  1.0000
  C   C119      1.0  0.50034  0.17070  0.32452  1.0000
  C   C120      1.0  0.50713  0.24284  0.36880  1.0000
  C   C121      1.0  0.00206  0.23323  0.27812  1.0000
  C   C122      1.0  0.99856  0.19690  0.25760  1.0000
  H   H73       1.0  0.99464  0.18923  0.19282  1.0000
  C   C123      1.0  0.50688  0.27851  0.39783  1.0000
  C   C124      1.0  0.97578  0.33332  0.38367  1.0000
  N   N17       1.0  0.97922  0.29825  0.36878  1.0000
  H   H74       1.0  0.95478  0.34558  0.35422  1.0000
  C   C125      1.0  0.00180  0.25794  0.20986  1.0000
  H   H75       1.0  0.58702  0.26857  0.36976  1.0000
  O   O25       1.0  0.97539  0.25925  0.16233  1.0000
  O   O26       1.0  0.53089  0.26691  0.17941  1.0000
  H   H76       1.0  0.53364  0.28049  0.13175  1.0000
  N   N18       1.0  0.99372  0.13632  0.30188  1.0000
  H   H77       1.0  0.97527  0.13319  0.25695  1.0000
  H   H78       1.0  0.84343  0.48931  0.24871  1.0000
  C   C126      1.0  0.77846  0.49532  0.18879  1.0000
  O   O27       1.0  0.77255  0.46545  0.16013  1.0000
  O   O28       1.0  0.76308  0.02096  0.15512  1.0000
  H   H79       1.0  0.75315  0.02070  0.10165  1.0000
  C   C127      1.0  0.58641  0.47287  0.51971  1.0000
  C   C128      1.0  0.57081  0.44352  0.56361  1.0000
  C   C129      1.0  0.54540  0.44832  0.63120  1.0000
  C   C130      1.0  0.53612  0.48275  0.66053  1.0000
  C   C131      1.0  0.55181  0.01209  0.61652  1.0000
  C   C132      1.0  0.57675  0.00725  0.54826  1.0000
  C   C133      1.0  0.96941  0.99715  0.65642  1.0000
  C   C134      1.0  0.96456  0.03177  0.62201  1.0000
  C   C135      1.0  0.93934  0.03853  0.55549  1.0000
  C   C136      1.0  0.91826  0.01096  0.51948  1.0000
  C   C137      1.0  0.92417  0.47609  0.55129  1.0000
  C   C138      1.0  0.94983  0.46917  0.61714  1.0000
  H   H80       1.0  0.95335  0.44346  0.63721  1.0000
  H   H81       1.0  0.90899  0.45535  0.52948  1.0000
  H   H82       1.0  0.93637  0.06416  0.53429  1.0000
  H   H83       1.0  0.97914  0.05283  0.64489  1.0000
  H   H84       1.0  0.54522  0.03760  0.63289  1.0000
  H   H85       1.0  0.53355  0.42624  0.65764  1.0000
  H   H86       1.0  0.57713  0.41820  0.54499  1.0000
  C   C139      1.0  0.88962  0.01937  0.46126  1.0000
  H   H87       1.0  0.58821  0.02935  0.52102  1.0000
  C   C140      1.0  0.61335  0.46785  0.45455  1.0000
  O   O29       1.0  0.94546  0.40543  0.42277  1.0000
  O   O30       1.0  0.54661  0.11430  0.36304  1.0000
  O   O31       1.0  0.87592  0.05255  0.46674  1.0000
  O   O32       1.0  0.63716  0.44190  0.47219  1.0000
  C   C141      1.0  0.50639  0.18181  0.41285  1.0000
  N   N19       1.0  0.50896  0.21692  0.43162  1.0000
  C   C142      1.0  0.53382  0.29519  0.44904  1.0000
  C   C143      1.0  0.53114  0.33217  0.46373  1.0000
  C   C144      1.0  0.50253  0.35239  0.42959  1.0000
  H   H88       1.0  0.55120  0.34507  0.49668  1.0000
  H   H89       1.0  0.50687  0.16391  0.46388  1.0000
  C   C145      1.0  0.56396  0.27773  0.47860  1.0000
  O   O33       1.0  0.56221  0.26428  0.55247  1.0000
  O   O34       1.0  0.58439  0.26270  0.42651  1.0000
  N   N20       1.0  0.50382  0.38905  0.43401  1.0000
  H   H90       1.0  0.52777  0.39867  0.43567  1.0000
  C   C146      1.0  0.83749  0.99894  0.38606  1.0000
  C   C147      1.0  0.81204  0.00549  0.45286  1.0000
  N   N21       1.0  0.77748  0.00848  0.43124  1.0000
  C   C148      1.0  0.76480  0.00579  0.34696  1.0000
  C   C149      1.0  0.78884  0.49803  0.27669  1.0000
  C   C150      1.0  0.82530  0.49440  0.29789  1.0000
  C   C151      1.0  0.72747  0.00788  0.33945  1.0000
  C   C152      1.0  0.70718  0.03560  0.37855  1.0000
  C   C153      1.0  0.67023  0.03043  0.38766  1.0000
  C   C154      1.0  0.65390  0.99844  0.36067  1.0000
  C   C155      1.0  0.67508  0.47284  0.31790  1.0000
  N   N22       1.0  0.71057  0.47801  0.31125  1.0000
  H   H91       1.0  0.65531  0.04904  0.42036  1.0000
  H   H92       1.0  0.66457  0.44903  0.29865  1.0000
  H   H93       1.0  0.81915  0.00765  0.51829  1.0000
  C   C156      1.0  0.72192  0.06686  0.41180  1.0000
  O   O35       1.0  0.72485  0.06894  0.49266  1.0000
  O   O36       1.0  0.74355  0.08458  0.36867  1.0000
  H   H94       1.0  0.74503  0.08456  0.30981  1.0000
  N   N23       1.0  0.61998  0.99151  0.38760  1.0000
  H   H95       1.0  0.60294  0.01060  0.37878  1.0000
  N   N24       1.0  0.87247  0.49546  0.40831  1.0000
  H   H96       1.0  0.88324  0.47253  0.39630  1.0000
  Si  Si4       1.0  0.00195  0.98925  0.06173  1.0000
  C   C157      1.0  0.99470  0.95681  0.13469  1.0000
  C   C158      1.0  0.50699  0.52312  0.13178  1.0000
  C   C159      1.0  0.97670  0.53739  0.17434  1.0000
  C   C160      1.0  0.97995  0.56392  0.23920  1.0000
  C   C161      1.0  0.51357  0.57756  0.26326  1.0000
  C   C162      1.0  0.54401  0.56166  0.22558  1.0000
  C   C163      1.0  0.54078  0.53453  0.16169  1.0000
  C   C164      1.0  0.52384  0.94415  0.18483  1.0000
  C   C165      1.0  0.51890  0.92810  0.26841  1.0000
  C   C166      1.0  0.98475  0.92475  0.30702  1.0000
  C   C167      1.0  0.95557  0.93626  0.25514  1.0000
  C   C168      1.0  0.96037  0.95195  0.17103  1.0000
  H   H97       1.0  0.95725  0.57382  0.26700  1.0000
  H   H98       1.0  0.95162  0.52907  0.15826  1.0000
  H   H99       1.0  0.56887  0.57064  0.24141  1.0000
  H   H100      1.0  0.56355  0.52366  0.13684  1.0000
  H   H101      1.0  0.54941  0.94887  0.16478  1.0000
  H   H102      1.0  0.54116  0.92094  0.30256  1.0000
  H   H103      1.0  0.93028  0.93489  0.27962  1.0000
  H   H104      1.0  0.93849  0.96245  0.14065  1.0000
  C   C169      1.0  0.51635  0.60876  0.31628  1.0000
  C   C170      1.0  0.97926  0.91012  0.39423  1.0000
  C   C171      1.0  0.50034  0.67070  0.32452  1.0000
  C   C172      1.0  0.50713  0.74284  0.36880  1.0000
  C   C173      1.0  0.00206  0.73323  0.27812  1.0000
  C   C174      1.0  0.99857  0.69690  0.25760  1.0000
  H   H105      1.0  0.99464  0.68923  0.19282  1.0000
  C   C175      1.0  0.50688  0.77851  0.39783  1.0000
  C   C176      1.0  0.97578  0.83332  0.38367  1.0000
  N   N25       1.0  0.97923  0.79825  0.36878  1.0000
  H   H106      1.0  0.95478  0.84558  0.35422  1.0000
  C   C177      1.0  0.00180  0.75794  0.20986  1.0000
  H   H107      1.0  0.58702  0.76857  0.36976  1.0000
  O   O37       1.0  0.97539  0.75925  0.16233  1.0000
  O   O38       1.0  0.53090  0.76690  0.17941  1.0000
  H   H108      1.0  0.53364  0.78049  0.13175  1.0000
  N   N26       1.0  0.99372  0.63632  0.30188  1.0000
  H   H109      1.0  0.97526  0.63319  0.25695  1.0000
  H   H110      1.0  0.84343  0.98931  0.24871  1.0000
  C   C178      1.0  0.77846  0.99531  0.18879  1.0000
  O   O39       1.0  0.77255  0.96545  0.16013  1.0000
  O   O40       1.0  0.76308  0.52096  0.15512  1.0000
  H   H111      1.0  0.75315  0.52070  0.10165  1.0000
  C   C179      1.0  0.58641  0.97287  0.51971  1.0000
  C   C180      1.0  0.57081  0.94352  0.56361  1.0000
  C   C181      1.0  0.54539  0.94832  0.63120  1.0000
  C   C182      1.0  0.53612  0.98275  0.66053  1.0000
  C   C183      1.0  0.55181  0.51209  0.61652  1.0000
  C   C184      1.0  0.57675  0.50725  0.54826  1.0000
  C   C185      1.0  0.96941  0.49715  0.65642  1.0000
  C   C186      1.0  0.96456  0.53177  0.62201  1.0000
  C   C187      1.0  0.93934  0.53853  0.55549  1.0000
  C   C188      1.0  0.91826  0.51096  0.51948  1.0000
  C   C189      1.0  0.92417  0.97609  0.55129  1.0000
  C   C190      1.0  0.94982  0.96917  0.61714  1.0000
  H   H112      1.0  0.95335  0.94346  0.63721  1.0000
  H   H113      1.0  0.90899  0.95535  0.52948  1.0000
  H   H114      1.0  0.93637  0.56417  0.53429  1.0000
  H   H115      1.0  0.97914  0.55283  0.64489  1.0000
  H   H116      1.0  0.54522  0.53760  0.63289  1.0000
  H   H117      1.0  0.53355  0.92624  0.65764  1.0000
  H   H118      1.0  0.57713  0.91820  0.54499  1.0000
  C   C191      1.0  0.88962  0.51937  0.46126  1.0000
  H   H119      1.0  0.58821  0.52935  0.52102  1.0000
  C   C192      1.0  0.61335  0.96785  0.45455  1.0000
  O   O41       1.0  0.94546  0.90543  0.42277  1.0000
  O   O42       1.0  0.54661  0.61430  0.36304  1.0000
  O   O43       1.0  0.87592  0.55255  0.46674  1.0000
  O   O44       1.0  0.63716  0.94190  0.47219  1.0000
  C   C193      1.0  0.50639  0.68182  0.41285  1.0000
  N   N27       1.0  0.50896  0.71692  0.43162  1.0000
  C   C194      1.0  0.53382  0.79519  0.44904  1.0000
  C   C195      1.0  0.53114  0.83217  0.46373  1.0000
  C   C196      1.0  0.50253  0.85239  0.42959  1.0000
  H   H120      1.0  0.55120  0.84508  0.49668  1.0000
  H   H121      1.0  0.50687  0.66391  0.46388  1.0000
  C   C197      1.0  0.56396  0.77773  0.47860  1.0000
  O   O45       1.0  0.56221  0.76428  0.55247  1.0000
  O   O46       1.0  0.58439  0.76270  0.42651  1.0000
  N   N28       1.0  0.50382  0.88905  0.43401  1.0000
  H   H122      1.0  0.52777  0.89867  0.43567  1.0000
  C   C198      1.0  0.83749  0.49894  0.38606  1.0000
  C   C199      1.0  0.81204  0.50550  0.45286  1.0000
  N   N29       1.0  0.77748  0.50848  0.43124  1.0000
  C   C200      1.0  0.76480  0.50579  0.34696  1.0000
  C   C201      1.0  0.78884  0.99804  0.27669  1.0000
  C   C202      1.0  0.82530  0.99440  0.29789  1.0000
  C   C203      1.0  0.72747  0.50788  0.33945  1.0000
  C   C204      1.0  0.70718  0.53561  0.37855  1.0000
  C   C205      1.0  0.67023  0.53043  0.38766  1.0000
  C   C206      1.0  0.65390  0.49844  0.36067  1.0000
  C   C207      1.0  0.67508  0.97284  0.31791  1.0000
  N   N30       1.0  0.71057  0.97801  0.31125  1.0000
  H   H123      1.0  0.65531  0.54904  0.42036  1.0000
  H   H124      1.0  0.66458  0.94903  0.29865  1.0000
  H   H125      1.0  0.81915  0.50765  0.51829  1.0000
  C   C208      1.0  0.72192  0.56686  0.41180  1.0000
  O   O47       1.0  0.72485  0.56894  0.49266  1.0000
  O   O48       1.0  0.74355  0.58459  0.36867  1.0000
  H   H126      1.0  0.74503  0.58456  0.30981  1.0000
  N   N31       1.0  0.61997  0.49151  0.38760  1.0000
  H   H127      1.0  0.60294  0.51061  0.37878  1.0000
  N   N32       1.0  0.87247  0.99546  0.40831  1.0000
  H   H128      1.0  0.88324  0.97253  0.39630  1.0000
