data_image0
_chemical_formula_structural       C15H12C4NH3C4NH3C2NC2NC5NC3NC17H14N4C15H12C4NH3C4NH3C2NC2NC5NC3NC17H14N4C15H12C4NH3C4NH3C2NC2NC5NC3NC17H14N4C15H12C4NH3C4NH3C2NC2NC5NC3NC17H14N4
_chemical_formula_sum              "C208 H128 N40"
_cell_length_a       42.545
_cell_length_b       42.545
_cell_length_c       14.8903
_cell_angle_alpha    90
_cell_angle_beta     90
_cell_angle_gamma    90

_space_group_name_H-M_alt    "P 1"
_space_group_IT_number       1

loop_
  _space_group_symop_operation_xyz
  'x, y, z'

loop_
  _atom_site_type_symbol
  _atom_site_label
  _atom_site_symmetry_multiplicity
  _atom_site_fract_x
  _atom_site_fract_y
  _atom_site_fract_z
  _atom_site_occupancy
  C   C1        1.0  0.43482  0.47187  0.35156  1.0000
  C   C2        1.0  0.03184  0.43413  0.34882  1.0000
  C   C3        1.0  0.50041  0.08407  0.34712  1.0000
  C   C4        1.0  0.47077  0.06862  0.34890  1.0000
  C   C5        1.0  0.41863  0.06023  0.34752  1.0000
  C   C6        1.0  0.44140  0.08330  0.34838  1.0000
  C   C7        1.0  0.33674  0.49222  0.25842  1.0000
  C   C8        1.0  0.36974  0.49170  0.26490  1.0000
  C   C9        1.0  0.50052  0.11771  0.34191  1.0000
  C   C10       1.0  0.49252  0.16617  0.25570  1.0000
  C   C11       1.0  0.49174  0.13315  0.26169  1.0000
  C   C12       1.0  0.13234  0.00326  0.25672  1.0000
  C   C13       1.0  0.16536  0.00376  0.25057  1.0000
  C   C14       1.0  0.00311  0.37051  0.25852  1.0000
  C   C15       1.0  0.00355  0.33752  0.25179  1.0000
  H   H1        1.0  0.00372  0.32792  0.18889  1.0000
  H   H2        1.0  0.00359  0.38368  0.20100  1.0000
  H   H3        1.0  0.43916  0.39600  0.35584  1.0000
  H   H4        1.0  0.11928  0.00388  0.19901  1.0000
  H   H5        1.0  0.17508  0.00415  0.18784  1.0000
  H   H6        1.0  0.06355  0.10645  0.33263  1.0000
  H   H7        1.0  0.39502  0.06452  0.34578  1.0000
  H   H8        1.0  0.43684  0.10687  0.34720  1.0000
  H   H9        1.0  0.48471  0.12043  0.20695  1.0000
  H   H10       1.0  0.48563  0.17653  0.19689  1.0000
  H   H11       1.0  0.38262  0.48491  0.21018  1.0000
  H   H12       1.0  0.32655  0.48540  0.19932  1.0000
  C   C16       1.0  0.00414  0.28443  0.32294  1.0000
  C   C17       1.0  0.01891  0.26805  0.25185  1.0000
  C   C18       1.0  0.02013  0.23478  0.25028  1.0000
  C   C19       1.0  0.00513  0.21818  0.32147  1.0000
  N   N1        1.0  0.03668  0.22046  0.18361  1.0000
  H   H13       1.0  0.04751  0.23265  0.13774  1.0000
  H   H14       1.0  0.04103  0.19809  0.18472  1.0000
  H   H15       1.0  0.03035  0.28036  0.20278  1.0000
  C   C20       1.0  0.21832  0.00390  0.32275  1.0000
  C   C21       1.0  0.23495  0.01877  0.25232  1.0000
  C   C22       1.0  0.26823  0.01993  0.25165  1.0000
  C   C23       1.0  0.28457  0.00477  0.32305  1.0000
  N   N2        1.0  0.28279  0.03660  0.18565  1.0000
  H   H16       1.0  0.27077  0.04754  0.13963  1.0000
  H   H17       1.0  0.30517  0.04091  0.18742  1.0000
  H   H18       1.0  0.22282  0.03033  0.20312  1.0000
  C   C24       1.0  0.44344  0.41962  0.35414  1.0000
  C   C25       1.0  0.42034  0.44240  0.35493  1.0000
  N   N3        1.0  0.46613  0.46581  0.35039  1.0000
  C   C26       1.0  0.47265  0.43458  0.35126  1.0000
  C   C27       1.0  0.50216  0.41882  0.34917  1.0000
  N   N4        1.0  0.03773  0.46537  0.35004  1.0000
  C   C28       1.0  0.06889  0.47160  0.34865  1.0000
  C   C29       1.0  0.08396  0.44245  0.34688  1.0000
  C   C30       1.0  0.06115  0.41938  0.34693  1.0000
  C   C31       1.0  0.08385  0.50145  0.34709  1.0000
  C   C32       1.0  0.06771  0.03079  0.34643  1.0000
  N   N5        1.0  0.03645  0.03700  0.35112  1.0000
  C   C33       1.0  0.02994  0.06821  0.34655  1.0000
  C   C34       1.0  0.05919  0.08295  0.33911  1.0000
  C   C35       1.0  0.08224  0.06013  0.33952  1.0000
  N   N6        1.0  0.46484  0.03737  0.35025  1.0000
  C   C36       1.0  0.43366  0.03104  0.34969  1.0000
  C   C37       1.0  0.41860  0.50118  0.35004  1.0000
  C   C38       1.0  0.38497  0.50065  0.34529  1.0000
  C   C39       1.0  0.36624  0.00958  0.41946  1.0000
  C   C40       1.0  0.33323  0.01057  0.41233  1.0000
  C   C41       1.0  0.31794  0.50268  0.33094  1.0000
  C   C42       1.0  0.00982  0.13624  0.41612  1.0000
  C   C43       1.0  0.01105  0.16926  0.40949  1.0000
  C   C44       1.0  0.50309  0.18477  0.32851  1.0000
  C   C45       1.0  0.11738  0.50186  0.34119  1.0000
  C   C46       1.0  0.18464  0.50288  0.32829  1.0000
  C   C47       1.0  0.16925  0.50087  0.41262  1.0000
  C   C48       1.0  0.13620  0.50050  0.41916  1.0000
  C   C49       1.0  0.50208  0.38530  0.34327  1.0000
  C   C50       1.0  0.50104  0.36633  0.42100  1.0000
  C   C51       1.0  0.50133  0.33330  0.41388  1.0000
  C   C52       1.0  0.50303  0.31808  0.32922  1.0000
  H   H19       1.0  0.50107  0.32042  0.47190  1.0000
  H   H20       1.0  0.50026  0.37647  0.48329  1.0000
  H   H21       1.0  0.39681  0.43773  0.35751  1.0000
  H   H22       1.0  0.48196  0.48185  0.34666  1.0000
  H   H23       1.0  0.02066  0.02105  0.35813  1.0000
  H   H24       1.0  0.06559  0.39579  0.34551  1.0000
  H   H25       1.0  0.10760  0.43826  0.34489  1.0000
  H   H26       1.0  0.12596  0.49935  0.48126  1.0000
  H   H27       1.0  0.18199  0.50029  0.47086  1.0000
  H   H28       1.0  0.10576  0.06464  0.33397  1.0000
  H   H29       1.0  0.01627  0.12574  0.47515  1.0000
  H   H30       1.0  0.01861  0.18187  0.46386  1.0000
  H   H31       1.0  0.32046  0.01808  0.46647  1.0000
  H   H32       1.0  0.37660  0.01615  0.47859  1.0000
  N   N7        1.0  0.99173  0.23557  0.38792  1.0000
  N   N8        1.0  0.99137  0.26631  0.38874  1.0000
  N   N9        1.0  0.26695  0.99127  0.38882  1.0000
  N   N10       1.0  0.23622  0.99097  0.38881  1.0000
  C   C53       1.0  0.43482  0.97187  0.35156  1.0000
  C   C54       1.0  0.03184  0.93414  0.34882  1.0000
  C   C55       1.0  0.50041  0.58407  0.34712  1.0000
  C   C56       1.0  0.47077  0.56862  0.34890  1.0000
  C   C57       1.0  0.41863  0.56022  0.34752  1.0000
  C   C58       1.0  0.44140  0.58330  0.34838  1.0000
  C   C59       1.0  0.33674  0.99222  0.25842  1.0000
  C   C60       1.0  0.36974  0.99170  0.26490  1.0000
  C   C61       1.0  0.50052  0.61771  0.34191  1.0000
  C   C62       1.0  0.49252  0.66617  0.25570  1.0000
  C   C63       1.0  0.49174  0.63316  0.26169  1.0000
  C   C64       1.0  0.13234  0.50326  0.25672  1.0000
  C   C65       1.0  0.16536  0.50376  0.25057  1.0000
  C   C66       1.0  0.00311  0.87051  0.25852  1.0000
  C   C67       1.0  0.00355  0.83752  0.25179  1.0000
  H   H33       1.0  0.00372  0.82792  0.18889  1.0000
  H   H34       1.0  0.00359  0.88368  0.20100  1.0000
  H   H35       1.0  0.43916  0.89600  0.35584  1.0000
  H   H36       1.0  0.11928  0.50388  0.19901  1.0000
  H   H37       1.0  0.17508  0.50415  0.18784  1.0000
  H   H38       1.0  0.06355  0.60645  0.33263  1.0000
  H   H39       1.0  0.39502  0.56452  0.34578  1.0000
  H   H40       1.0  0.43684  0.60687  0.34720  1.0000
  H   H41       1.0  0.48471  0.62043  0.20695  1.0000
  H   H42       1.0  0.48563  0.67653  0.19689  1.0000
  H   H43       1.0  0.38262  0.98491  0.21018  1.0000
  H   H44       1.0  0.32655  0.98540  0.19932  1.0000
  C   C68       1.0  0.00414  0.78443  0.32294  1.0000
  C   C69       1.0  0.01891  0.76805  0.25185  1.0000
  C   C70       1.0  0.02013  0.73477  0.25028  1.0000
  C   C71       1.0  0.00513  0.71818  0.32147  1.0000
  N   N11       1.0  0.03668  0.72046  0.18361  1.0000
  H   H45       1.0  0.04751  0.73265  0.13774  1.0000
  H   H46       1.0  0.04103  0.69808  0.18472  1.0000
  H   H47       1.0  0.03035  0.78036  0.20278  1.0000
  C   C72       1.0  0.21832  0.50390  0.32275  1.0000
  C   C73       1.0  0.23495  0.51877  0.25232  1.0000
  C   C74       1.0  0.26823  0.51993  0.25165  1.0000
  C   C75       1.0  0.28457  0.50477  0.32305  1.0000
  N   N12       1.0  0.28279  0.53660  0.18565  1.0000
  H   H48       1.0  0.27077  0.54753  0.13963  1.0000
  H   H49       1.0  0.30517  0.54091  0.18742  1.0000
  H   H50       1.0  0.22282  0.53033  0.20312  1.0000
  C   C76       1.0  0.44344  0.91962  0.35414  1.0000
  C   C77       1.0  0.42034  0.94240  0.35493  1.0000
  N   N13       1.0  0.46613  0.96581  0.35039  1.0000
  C   C78       1.0  0.47265  0.93458  0.35126  1.0000
  C   C79       1.0  0.50216  0.91882  0.34917  1.0000
  N   N14       1.0  0.03773  0.96537  0.35004  1.0000
  C   C80       1.0  0.06889  0.97160  0.34865  1.0000
  C   C81       1.0  0.08396  0.94245  0.34688  1.0000
  C   C82       1.0  0.06115  0.91938  0.34693  1.0000
  C   C83       1.0  0.08385  0.00145  0.34709  1.0000
  C   C84       1.0  0.06771  0.53079  0.34643  1.0000
  N   N15       1.0  0.03645  0.53700  0.35112  1.0000
  C   C85       1.0  0.02994  0.56821  0.34655  1.0000
  C   C86       1.0  0.05919  0.58295  0.33911  1.0000
  C   C87       1.0  0.08224  0.56013  0.33952  1.0000
  N   N16       1.0  0.46484  0.53737  0.35025  1.0000
  C   C88       1.0  0.43366  0.53104  0.34969  1.0000
  C   C89       1.0  0.41860  0.00118  0.35004  1.0000
  C   C90       1.0  0.38497  0.00065  0.34529  1.0000
  C   C91       1.0  0.36624  0.50958  0.41946  1.0000
  C   C92       1.0  0.33323  0.51057  0.41233  1.0000
  C   C93       1.0  0.31794  0.00268  0.33094  1.0000
  C   C94       1.0  0.00982  0.63624  0.41612  1.0000
  C   C95       1.0  0.01105  0.66926  0.40949  1.0000
  C   C96       1.0  0.50309  0.68477  0.32851  1.0000
  C   C97       1.0  0.11738  0.00186  0.34119  1.0000
  C   C98       1.0  0.18464  0.00288  0.32829  1.0000
  C   C99       1.0  0.16925  0.00087  0.41262  1.0000
  C   C100      1.0  0.13620  0.00050  0.41916  1.0000
  C   C101      1.0  0.50208  0.88530  0.34327  1.0000
  C   C102      1.0  0.50104  0.86633  0.42100  1.0000
  C   C103      1.0  0.50133  0.83330  0.41388  1.0000
  C   C104      1.0  0.50303  0.81808  0.32922  1.0000
  H   H51       1.0  0.50107  0.82042  0.47190  1.0000
  H   H52       1.0  0.50026  0.87647  0.48329  1.0000
  H   H53       1.0  0.39681  0.93773  0.35751  1.0000
  H   H54       1.0  0.48196  0.98185  0.34666  1.0000
  H   H55       1.0  0.02066  0.52105  0.35813  1.0000
  H   H56       1.0  0.06559  0.89579  0.34551  1.0000
  H   H57       1.0  0.10760  0.93826  0.34489  1.0000
  H   H58       1.0  0.12596  0.99935  0.48126  1.0000
  H   H59       1.0  0.18199  0.00029  0.47086  1.0000
  H   H60       1.0  0.10576  0.56464  0.33397  1.0000
  H   H61       1.0  0.01627  0.62574  0.47515  1.0000
  H   H62       1.0  0.01861  0.68188  0.46386  1.0000
  H   H63       1.0  0.32046  0.51808  0.46647  1.0000
  H   H64       1.0  0.37660  0.51615  0.47859  1.0000
  N   N17       1.0  0.99173  0.73557  0.38792  1.0000
  N   N18       1.0  0.99137  0.76631  0.38874  1.0000
  N   N19       1.0  0.26695  0.49127  0.38882  1.0000
  N   N20       1.0  0.23622  0.49097  0.38881  1.0000
  C   C105      1.0  0.93482  0.47187  0.35156  1.0000
  C   C106      1.0  0.53183  0.43413  0.34882  1.0000
  C   C107      1.0  0.00042  0.08407  0.34712  1.0000
  C   C108      1.0  0.97076  0.06862  0.34890  1.0000
  C   C109      1.0  0.91863  0.06023  0.34752  1.0000
  C   C110      1.0  0.94141  0.08330  0.34838  1.0000
  C   C111      1.0  0.83674  0.49222  0.25842  1.0000
  C   C112      1.0  0.86974  0.49170  0.26490  1.0000
  C   C113      1.0  0.00052  0.11771  0.34191  1.0000
  C   C114      1.0  0.99252  0.16617  0.25570  1.0000
  C   C115      1.0  0.99174  0.13315  0.26169  1.0000
  C   C116      1.0  0.63235  0.00326  0.25672  1.0000
  C   C117      1.0  0.66536  0.00376  0.25057  1.0000
  C   C118      1.0  0.50311  0.37051  0.25852  1.0000
  C   C119      1.0  0.50355  0.33752  0.25179  1.0000
  H   H65       1.0  0.50372  0.32792  0.18889  1.0000
  H   H66       1.0  0.50359  0.38368  0.20100  1.0000
  H   H67       1.0  0.93917  0.39600  0.35584  1.0000
  H   H68       1.0  0.61928  0.00388  0.19901  1.0000
  H   H69       1.0  0.67508  0.00415  0.18784  1.0000
  H   H70       1.0  0.56355  0.10645  0.33263  1.0000
  H   H71       1.0  0.89502  0.06452  0.34578  1.0000
  H   H72       1.0  0.93684  0.10687  0.34720  1.0000
  H   H73       1.0  0.98471  0.12043  0.20695  1.0000
  H   H74       1.0  0.98563  0.17653  0.19689  1.0000
  H   H75       1.0  0.88262  0.48491  0.21018  1.0000
  H   H76       1.0  0.82655  0.48540  0.19932  1.0000
  C   C120      1.0  0.50414  0.28443  0.32294  1.0000
  C   C121      1.0  0.51891  0.26805  0.25185  1.0000
  C   C122      1.0  0.52013  0.23478  0.25028  1.0000
  C   C123      1.0  0.50514  0.21818  0.32147  1.0000
  N   N21       1.0  0.53668  0.22046  0.18361  1.0000
  H   H77       1.0  0.54751  0.23265  0.13774  1.0000
  H   H78       1.0  0.54103  0.19809  0.18472  1.0000
  H   H79       1.0  0.53035  0.28036  0.20278  1.0000
  C   C124      1.0  0.71831  0.00390  0.32275  1.0000
  C   C125      1.0  0.73496  0.01877  0.25232  1.0000
  C   C126      1.0  0.76823  0.01993  0.25165  1.0000
  C   C127      1.0  0.78457  0.00477  0.32305  1.0000
  N   N22       1.0  0.78279  0.03660  0.18565  1.0000
  H   H80       1.0  0.77077  0.04754  0.13963  1.0000
  H   H81       1.0  0.80517  0.04091  0.18742  1.0000
  H   H82       1.0  0.72283  0.03033  0.20312  1.0000
  C   C128      1.0  0.94344  0.41962  0.35414  1.0000
  C   C129      1.0  0.92034  0.44240  0.35493  1.0000
  N   N23       1.0  0.96613  0.46581  0.35039  1.0000
  C   C130      1.0  0.97265  0.43458  0.35126  1.0000
  C   C131      1.0  0.00216  0.41882  0.34917  1.0000
  N   N24       1.0  0.53773  0.46537  0.35004  1.0000
  C   C132      1.0  0.56889  0.47160  0.34865  1.0000
  C   C133      1.0  0.58396  0.44245  0.34688  1.0000
  C   C134      1.0  0.56115  0.41938  0.34693  1.0000
  C   C135      1.0  0.58385  0.50145  0.34709  1.0000
  C   C136      1.0  0.56771  0.03079  0.34643  1.0000
  N   N25       1.0  0.53645  0.03700  0.35112  1.0000
  C   C137      1.0  0.52994  0.06821  0.34655  1.0000
  C   C138      1.0  0.55919  0.08295  0.33911  1.0000
  C   C139      1.0  0.58224  0.06013  0.33952  1.0000
  N   N26       1.0  0.96484  0.03737  0.35025  1.0000
  C   C140      1.0  0.93366  0.03104  0.34969  1.0000
  C   C141      1.0  0.91860  0.50118  0.35004  1.0000
  C   C142      1.0  0.88497  0.50065  0.34529  1.0000
  C   C143      1.0  0.86624  0.00958  0.41946  1.0000
  C   C144      1.0  0.83323  0.01057  0.41233  1.0000
  C   C145      1.0  0.81795  0.50268  0.33094  1.0000
  C   C146      1.0  0.50982  0.13624  0.41612  1.0000
  C   C147      1.0  0.51105  0.16926  0.40949  1.0000
  C   C148      1.0  0.00309  0.18477  0.32851  1.0000
  C   C149      1.0  0.61738  0.50186  0.34119  1.0000
  C   C150      1.0  0.68464  0.50288  0.32829  1.0000
  C   C151      1.0  0.66925  0.50087  0.41262  1.0000
  C   C152      1.0  0.63620  0.50050  0.41916  1.0000
  C   C153      1.0  0.00208  0.38530  0.34327  1.0000
  C   C154      1.0  0.00104  0.36633  0.42100  1.0000
  C   C155      1.0  0.00133  0.33330  0.41388  1.0000
  C   C156      1.0  0.00303  0.31808  0.32922  1.0000
  H   H83       1.0  0.00107  0.32042  0.47190  1.0000
  H   H84       1.0  0.00026  0.37647  0.48329  1.0000
  H   H85       1.0  0.89681  0.43773  0.35751  1.0000
  H   H86       1.0  0.98196  0.48185  0.34666  1.0000
  H   H87       1.0  0.52067  0.02105  0.35813  1.0000
  H   H88       1.0  0.56559  0.39579  0.34551  1.0000
  H   H89       1.0  0.60760  0.43826  0.34489  1.0000
  H   H90       1.0  0.62596  0.49935  0.48126  1.0000
  H   H91       1.0  0.68199  0.50029  0.47086  1.0000
  H   H92       1.0  0.60576  0.06464  0.33397  1.0000
  H   H93       1.0  0.51627  0.12574  0.47515  1.0000
  H   H94       1.0  0.51862  0.18187  0.46386  1.0000
  H   H95       1.0  0.82046  0.01808  0.46647  1.0000
  H   H96       1.0  0.87660  0.01615  0.47859  1.0000
  N   N27       1.0  0.49173  0.23557  0.38792  1.0000
  N   N28       1.0  0.49137  0.26631  0.38874  1.0000
  N   N29       1.0  0.76695  0.99127  0.38882  1.0000
  N   N30       1.0  0.73621  0.99097  0.38881  1.0000
  C   C157      1.0  0.93482  0.97187  0.35156  1.0000
  C   C158      1.0  0.53183  0.93414  0.34882  1.0000
  C   C159      1.0  0.00042  0.58407  0.34712  1.0000
  C   C160      1.0  0.97076  0.56862  0.34890  1.0000
  C   C161      1.0  0.91863  0.56022  0.34752  1.0000
  C   C162      1.0  0.94141  0.58330  0.34838  1.0000
  C   C163      1.0  0.83674  0.99222  0.25842  1.0000
  C   C164      1.0  0.86974  0.99170  0.26490  1.0000
  C   C165      1.0  0.00052  0.61771  0.34191  1.0000
  C   C166      1.0  0.99252  0.66617  0.25570  1.0000
  C   C167      1.0  0.99174  0.63316  0.26169  1.0000
  C   C168      1.0  0.63235  0.50326  0.25672  1.0000
  C   C169      1.0  0.66536  0.50376  0.25057  1.0000
  C   C170      1.0  0.50311  0.87051  0.25852  1.0000
  C   C171      1.0  0.50355  0.83752  0.25179  1.0000
  H   H97       1.0  0.50372  0.82792  0.18889  1.0000
  H   H98       1.0  0.50359  0.88368  0.20100  1.0000
  H   H99       1.0  0.93917  0.89600  0.35584  1.0000
  H   H100      1.0  0.61928  0.50388  0.19901  1.0000
  H   H101      1.0  0.67508  0.50415  0.18784  1.0000
  H   H102      1.0  0.56355  0.60645  0.33263  1.0000
  H   H103      1.0  0.89502  0.56452  0.34578  1.0000
  H   H104      1.0  0.93684  0.60687  0.34720  1.0000
  H   H105      1.0  0.98471  0.62043  0.20695  1.0000
  H   H106      1.0  0.98563  0.67653  0.19689  1.0000
  H   H107      1.0  0.88262  0.98491  0.21018  1.0000
  H   H108      1.0  0.82655  0.98540  0.19932  1.0000
  C   C172      1.0  0.50414  0.78443  0.32294  1.0000
  C   C173      1.0  0.51891  0.76805  0.25185  1.0000
  C   C174      1.0  0.52013  0.73477  0.25028  1.0000
  C   C175      1.0  0.50514  0.71818  0.32147  1.0000
  N   N31       1.0  0.53668  0.72046  0.18361  1.0000
  H   H109      1.0  0.54751  0.73265  0.13774  1.0000
  H   H110      1.0  0.54103  0.69808  0.18472  1.0000
  H   H111      1.0  0.53035  0.78036  0.20278  1.0000
  C   C176      1.0  0.71831  0.50390  0.32275  1.0000
  C   C177      1.0  0.73496  0.51877  0.25232  1.0000
  C   C178      1.0  0.76823  0.51993  0.25165  1.0000
  C   C179      1.0  0.78457  0.50477  0.32305  1.0000
  N   N32       1.0  0.78279  0.53660  0.18565  1.0000
  H   H112      1.0  0.77077  0.54753  0.13963  1.0000
  H   H113      1.0  0.80517  0.54091  0.18742  1.0000
  H   H114      1.0  0.72283  0.53033  0.20312  1.0000
  C   C180      1.0  0.94344  0.91962  0.35414  1.0000
  C   C181      1.0  0.92034  0.94240  0.35493  1.0000
  N   N33       1.0  0.96613  0.96581  0.35039  1.0000
  C   C182      1.0  0.97265  0.93458  0.35126  1.0000
  C   C183      1.0  0.00216  0.91882  0.34917  1.0000
  N   N34       1.0  0.53773  0.96537  0.35004  1.0000
  C   C184      1.0  0.56889  0.97160  0.34865  1.0000
  C   C185      1.0  0.58396  0.94245  0.34688  1.0000
  C   C186      1.0  0.56115  0.91938  0.34693  1.0000
  C   C187      1.0  0.58385  0.00145  0.34709  1.0000
  C   C188      1.0  0.56771  0.53079  0.34643  1.0000
  N   N35       1.0  0.53645  0.53700  0.35112  1.0000
  C   C189      1.0  0.52994  0.56821  0.34655  1.0000
  C   C190      1.0  0.55919  0.58295  0.33911  1.0000
  C   C191      1.0  0.58224  0.56013  0.33952  1.0000
  N   N36       1.0  0.96484  0.53737  0.35025  1.0000
  C   C192      1.0  0.93366  0.53104  0.34969  1.0000
  C   C193      1.0  0.91860  0.00118  0.35004  1.0000
  C   C194      1.0  0.88497  0.00065  0.34529  1.0000
  C   C195      1.0  0.86624  0.50958  0.41946  1.0000
  C   C196      1.0  0.83323  0.51057  0.41233  1.0000
  C   C197      1.0  0.81795  0.00268  0.33094  1.0000
  C   C198      1.0  0.50982  0.63624  0.41612  1.0000
  C   C199      1.0  0.51105  0.66926  0.40949  1.0000
  C   C200      1.0  0.00309  0.68477  0.32851  1.0000
  C   C201      1.0  0.61738  0.00186  0.34119  1.0000
  C   C202      1.0  0.68464  0.00288  0.32829  1.0000
  C   C203      1.0  0.66925  0.00087  0.41262  1.0000
  C   C204      1.0  0.63620  0.00050  0.41916  1.0000
  C   C205      1.0  0.00208  0.88530  0.34327  1.0000
  C   C206      1.0  0.00104  0.86633  0.42100  1.0000
  C   C207      1.0  0.00133  0.83330  0.41388  1.0000
  C   C208      1.0  0.00303  0.81808  0.32922  1.0000
  H   H115      1.0  0.00107  0.82042  0.47190  1.0000
  H   H116      1.0  0.00026  0.87647  0.48329  1.0000
  H   H117      1.0  0.89681  0.93773  0.35751  1.0000
  H   H118      1.0  0.98196  0.98185  0.34666  1.0000
  H   H119      1.0  0.52067  0.52105  0.35813  1.0000
  H   H120      1.0  0.56559  0.89579  0.34551  1.0000
  H   H121      1.0  0.60760  0.93826  0.34489  1.0000
  H   H122      1.0  0.62596  0.99935  0.48126  1.0000
  H   H123      1.0  0.68199  0.00029  0.47086  1.0000
  H   H124      1.0  0.60576  0.56464  0.33397  1.0000
  H   H125      1.0  0.51627  0.62574  0.47515  1.0000
  H   H126      1.0  0.51862  0.68188  0.46386  1.0000
  H   H127      1.0  0.82046  0.51808  0.46647  1.0000
  H   H128      1.0  0.87660  0.51615  0.47859  1.0000
  N   N37       1.0  0.49173  0.73557  0.38792  1.0000
  N   N38       1.0  0.49137  0.76631  0.38874  1.0000
  N   N39       1.0  0.76695  0.49127  0.38882  1.0000
  N   N40       1.0  0.73621  0.49097  0.38881  1.0000
