data_image0
_chemical_formula_structural       NCHNCHNCHNCHNCHNCHC2NC2ONH2C2NC2ONH2C2NC2ONH2C2NC2ONH2C2NC2ONH2C2NC2ONH2C2NC2ONH2C2NC2ONH2C2NC2ONH2C2NC2ONH2C2NC2ONH2C2NC2ONH2C6H3C6H3C6H3C6H3C6H3C6H3C6H3C6H3C6H3C6H3C6H3C6H3C2NC2ONH2C2NC2ONH2C2NC2ONH2C2NC2ONH2C2NC2ONH2C2NC2ONH2NCHNCHNCHNCHNCHNCHNCHNCHNCHNCHNCHNCH
_chemical_formula_sum              "N54 C162 H90 O18"
_cell_length_a       37.2857
_cell_length_b       37.2857
_cell_length_c       14.8357
_cell_angle_alpha    90
_cell_angle_beta     90
_cell_angle_gamma    120

_space_group_name_H-M_alt    "P 1"
_space_group_IT_number       1

loop_
  _space_group_symop_operation_xyz
  'x, y, z'

loop_
  _atom_site_type_symbol
  _atom_site_label
  _atom_site_symmetry_multiplicity
  _atom_site_fract_x
  _atom_site_fract_y
  _atom_site_fract_z
  _atom_site_occupancy
  N   N1        1.0  0.19133  0.42109  0.28798  1.0000
  C   C1        1.0  0.16745  0.37939  0.27807  1.0000
  H   H1        1.0  0.14180  0.36779  0.23797  1.0000
  N   N2        1.0  0.58409  0.76411  0.28822  1.0000
  C   C2        1.0  0.62580  0.78199  0.27838  1.0000
  H   H2        1.0  0.63744  0.76792  0.23845  1.0000
  N   N3        1.0  0.24073  0.81372  0.28758  1.0000
  C   C3        1.0  0.22293  0.83762  0.27790  1.0000
  H   H3        1.0  0.23692  0.86323  0.23763  1.0000
  N   N4        1.0  0.81953  0.57835  0.28783  1.0000
  C   C4        1.0  0.84339  0.62006  0.27809  1.0000
  H   H4        1.0  0.86906  0.63170  0.23804  1.0000
  N   N5        1.0  0.42689  0.23513  0.28793  1.0000
  C   C5        1.0  0.38519  0.21733  0.27804  1.0000
  H   H5        1.0  0.37361  0.23139  0.23790  1.0000
  N   N6        1.0  0.76971  0.18546  0.28812  1.0000
  C   C6        1.0  0.78760  0.16164  0.27819  1.0000
  H   H6        1.0  0.77347  0.13588  0.23841  1.0000
  C   C7        1.0  0.17865  0.22025  0.30779  1.0000
  C   C8        1.0  0.22579  0.17996  0.31755  1.0000
  N   N7        1.0  0.19092  0.16537  0.26662  1.0000
  C   C9        1.0  0.16695  0.18325  0.25812  1.0000
  C   C10       1.0  0.13412  0.16426  0.19509  1.0000
  O   O1        1.0  0.11439  0.12256  0.18603  1.0000
  N   N8        1.0  0.12510  0.18574  0.13461  1.0000
  H   H7        1.0  0.14142  0.21575  0.13081  1.0000
  H   H8        1.0  0.10406  0.17116  0.08890  1.0000
  C   C11       1.0  0.78488  0.95242  0.30817  1.0000
  C   C12       1.0  0.82518  0.03984  0.31783  1.0000
  N   N9        1.0  0.83976  0.01955  0.26691  1.0000
  C   C13       1.0  0.82189  0.97769  0.25852  1.0000
  C   C14       1.0  0.84081  0.96386  0.19531  1.0000
  O   O2        1.0  0.88252  0.98573  0.18644  1.0000
  N   N10       1.0  0.81928  0.93338  0.13484  1.0000
  H   H9        1.0  0.78926  0.91961  0.13122  1.0000
  H   H10       1.0  0.83382  0.92677  0.08931  1.0000
  C   C15       1.0  0.05271  0.82651  0.30812  1.0000
  C   C16       1.0  0.96529  0.77939  0.31796  1.0000
  N   N11       1.0  0.98556  0.81422  0.26692  1.0000
  C   C17       1.0  0.02742  0.83818  0.25838  1.0000
  C   C18       1.0  0.04125  0.87097  0.19525  1.0000
  O   O3        1.0  0.01929  0.89070  0.18609  1.0000
  N   N12       1.0  0.07174  0.87995  0.13478  1.0000
  H   H11       1.0  0.08543  0.86363  0.13106  1.0000
  H   H12       1.0  0.07821  0.90097  0.08900  1.0000
  C   C19       1.0  0.83220  0.77919  0.30830  1.0000
  C   C20       1.0  0.78515  0.81955  0.31815  1.0000
  N   N13       1.0  0.81997  0.83409  0.26711  1.0000
  C   C21       1.0  0.84393  0.81619  0.25863  1.0000
  C   C22       1.0  0.87665  0.83508  0.19534  1.0000
  O   O4        1.0  0.89652  0.87679  0.18642  1.0000
  N   N14       1.0  0.88555  0.81351  0.13483  1.0000
  H   H13       1.0  0.86928  0.78350  0.13126  1.0000
  H   H14       1.0  0.90668  0.82804  0.08926  1.0000
  C   C23       1.0  0.22597  0.04705  0.30792  1.0000
  C   C24       1.0  0.18561  0.95963  0.31780  1.0000
  N   N15       1.0  0.17107  0.97991  0.26675  1.0000
  C   C25       1.0  0.18899  0.02176  0.25819  1.0000
  C   C26       1.0  0.17006  0.03562  0.19505  1.0000
  O   O5        1.0  0.12836  0.01367  0.18590  1.0000
  N   N16       1.0  0.19158  0.06610  0.13455  1.0000
  H   H15       1.0  0.22159  0.07977  0.13082  1.0000
  H   H16       1.0  0.17703  0.07257  0.08878  1.0000
  C   C27       1.0  0.95807  0.17296  0.30786  1.0000
  C   C28       1.0  0.04550  0.22001  0.31771  1.0000
  N   N17       1.0  0.02520  0.18515  0.26678  1.0000
  C   C29       1.0  0.98334  0.16119  0.25832  1.0000
  C   C30       1.0  0.96951  0.12843  0.19512  1.0000
  O   O6        1.0  0.99135  0.10855  0.18633  1.0000
  N   N18       1.0  0.93906  0.11950  0.13460  1.0000
  H   H17       1.0  0.92530  0.13576  0.13093  1.0000
  H   H18       1.0  0.93244  0.09834  0.08910  1.0000
  C   C31       1.0  0.22979  0.64844  0.38388  1.0000
  C   C32       1.0  0.22483  0.57060  0.39884  1.0000
  N   N19       1.0  0.21221  0.58235  0.32365  1.0000
  C   C33       1.0  0.21128  0.61844  0.31395  1.0000
  C   C34       1.0  0.20073  0.62587  0.22713  1.0000
  O   O7        1.0  0.16675  0.59472  0.18733  1.0000
  N   N20       1.0  0.22585  0.65894  0.17550  1.0000
  H   H19       1.0  0.25353  0.67926  0.19527  1.0000
  H   H20       1.0  0.21830  0.66044  0.11348  1.0000
  C   C35       1.0  0.35644  0.57565  0.38511  1.0000
  C   C36       1.0  0.43450  0.64820  0.39950  1.0000
  N   N21       1.0  0.42255  0.62361  0.32459  1.0000
  C   C37       1.0  0.38642  0.58655  0.31537  1.0000
  C   C38       1.0  0.37886  0.56868  0.22843  1.0000
  O   O8        1.0  0.40970  0.56522  0.18889  1.0000
  N   N22       1.0  0.34595  0.56125  0.17682  1.0000
  H   H21       1.0  0.32572  0.56870  0.19676  1.0000
  H   H22       1.0  0.34420  0.55196  0.11493  1.0000
  C   C39       1.0  0.42951  0.77481  0.38352  1.0000
  C   C40       1.0  0.35672  0.77992  0.39731  1.0000
  N   N23       1.0  0.38126  0.79258  0.32241  1.0000
  C   C41       1.0  0.41829  0.79346  0.31338  1.0000
  C   C42       1.0  0.43654  0.80407  0.22683  1.0000
  O   O9        1.0  0.43964  0.83816  0.18700  1.0000
  N   N24       1.0  0.44446  0.77889  0.17535  1.0000
  H   H23       1.0  0.43696  0.75117  0.19512  1.0000
  H   H24       1.0  0.45371  0.78647  0.11346  1.0000
  C   C43       1.0  0.78016  0.35061  0.38446  1.0000
  C   C44       1.0  0.78578  0.42868  0.39879  1.0000
  N   N25       1.0  0.79829  0.41672  0.32372  1.0000
  C   C45       1.0  0.79917  0.38055  0.31457  1.0000
  C   C46       1.0  0.80937  0.37291  0.22761  1.0000
  O   O10       1.0  0.84362  0.40370  0.18784  1.0000
  N   N26       1.0  0.78384  0.33994  0.17621  1.0000
  H   H25       1.0  0.75618  0.31972  0.19633  1.0000
  H   H26       1.0  0.79130  0.33812  0.11429  1.0000
  C   C47       1.0  0.65424  0.42392  0.38384  1.0000
  C   C48       1.0  0.57647  0.35106  0.39871  1.0000
  N   N27       1.0  0.58811  0.37542  0.32355  1.0000
  C   C49       1.0  0.62422  0.41246  0.31397  1.0000
  C   C50       1.0  0.63163  0.43052  0.22723  1.0000
  O   O11       1.0  0.60050  0.43343  0.18759  1.0000
  N   N28       1.0  0.66466  0.43845  0.17550  1.0000
  H   H27       1.0  0.68498  0.43106  0.19514  1.0000
  H   H28       1.0  0.66617  0.44756  0.11353  1.0000
  C   C51       1.0  0.58133  0.22440  0.38557  1.0000
  C   C52       1.0  0.65378  0.21891  0.40027  1.0000
  N   N29       1.0  0.62942  0.20635  0.32507  1.0000
  C   C53       1.0  0.59237  0.20544  0.31577  1.0000
  C   C54       1.0  0.57459  0.19525  0.22873  1.0000
  O   O12       1.0  0.57114  0.16098  0.18907  1.0000
  N   N30       1.0  0.56727  0.22081  0.17718  1.0000
  H   H29       1.0  0.57473  0.24848  0.19724  1.0000
  H   H30       1.0  0.55804  0.21335  0.11522  1.0000
  C   C55       1.0  0.08981  0.24259  0.31848  1.0000
  C   C56       1.0  0.11234  0.22128  0.31575  1.0000
  C   C57       1.0  0.15617  0.24222  0.31220  1.0000
  C   C58       1.0  0.17748  0.28608  0.31548  1.0000
  C   C59       1.0  0.15644  0.30891  0.31775  1.0000
  C   C60       1.0  0.11257  0.28647  0.31894  1.0000
  H   H31       1.0  0.20917  0.30188  0.31285  1.0000
  H   H32       1.0  0.09686  0.30242  0.32069  1.0000
  H   H33       1.0  0.09635  0.18962  0.31828  1.0000
  C   C61       1.0  0.76255  0.84126  0.31891  1.0000
  C   C62       1.0  0.78386  0.88510  0.31615  1.0000
  C   C63       1.0  0.76290  0.90797  0.31256  1.0000
  C   C64       1.0  0.71904  0.88541  0.31590  1.0000
  C   C65       1.0  0.69623  0.84154  0.31812  1.0000
  C   C66       1.0  0.71869  0.82012  0.31935  1.0000
  H   H34       1.0  0.70323  0.90129  0.31315  1.0000
  H   H35       1.0  0.70275  0.78846  0.32109  1.0000
  H   H36       1.0  0.81552  0.90078  0.31866  1.0000
  C   C67       1.0  0.16389  0.91533  0.31869  1.0000
  C   C68       1.0  0.12004  0.89281  0.31595  1.0000
  C   C69       1.0  0.09715  0.84897  0.31251  1.0000
  C   C70       1.0  0.11970  0.82766  0.31589  1.0000
  C   C71       1.0  0.16356  0.84871  0.31804  1.0000
  C   C72       1.0  0.18500  0.89258  0.31915  1.0000
  H   H37       1.0  0.10380  0.79597  0.31322  1.0000
  H   H38       1.0  0.21667  0.90828  0.32083  1.0000
  H   H39       1.0  0.10437  0.90880  0.31848  1.0000
  C   C73       1.0  0.92100  0.75680  0.31884  1.0000
  C   C74       1.0  0.89847  0.77812  0.31610  1.0000
  C   C75       1.0  0.85464  0.75718  0.31262  1.0000
  C   C76       1.0  0.83333  0.71332  0.31593  1.0000
  C   C77       1.0  0.85437  0.69049  0.31811  1.0000
  C   C78       1.0  0.89825  0.71294  0.31926  1.0000
  H   H40       1.0  0.80163  0.69752  0.31329  1.0000
  H   H41       1.0  0.91396  0.69699  0.32094  1.0000
  H   H42       1.0  0.91446  0.80978  0.31868  1.0000
  C   C79       1.0  0.24838  0.15824  0.31844  1.0000
  C   C80       1.0  0.22705  0.11440  0.31571  1.0000
  C   C81       1.0  0.24798  0.09149  0.31226  1.0000
  C   C82       1.0  0.29184  0.11403  0.31560  1.0000
  C   C83       1.0  0.31468  0.15790  0.31780  1.0000
  C   C84       1.0  0.29225  0.17935  0.31890  1.0000
  H   H43       1.0  0.30762  0.09812  0.31298  1.0000
  H   H44       1.0  0.30821  0.21101  0.32060  1.0000
  H   H45       1.0  0.19539  0.09874  0.31828  1.0000
  C   C85       1.0  0.84689  0.08415  0.31859  1.0000
  C   C86       1.0  0.89073  0.10668  0.31583  1.0000
  C   C87       1.0  0.91362  0.15052  0.31223  1.0000
  C   C88       1.0  0.89106  0.17181  0.31546  1.0000
  C   C89       1.0  0.84719  0.15077  0.31773  1.0000
  C   C90       1.0  0.82577  0.10690  0.31899  1.0000
  H   H46       1.0  0.90695  0.20351  0.31279  1.0000
  H   H47       1.0  0.79411  0.09118  0.32075  1.0000
  H   H48       1.0  0.90641  0.09069  0.31842  1.0000
  C   C91       1.0  0.31288  0.54982  0.37746  1.0000
  C   C92       1.0  0.28837  0.56771  0.39966  1.0000
  C   C93       1.0  0.24501  0.54727  0.38660  1.0000
  C   C94       1.0  0.22532  0.50575  0.35667  1.0000
  C   C95       1.0  0.24798  0.48465  0.34491  1.0000
  C   C96       1.0  0.29202  0.50838  0.34675  1.0000
  H   H49       1.0  0.19368  0.48973  0.35266  1.0000
  H   H50       1.0  0.30911  0.49440  0.33388  1.0000
  H   H51       1.0  0.30333  0.59860  0.41579  1.0000
  C   C97       1.0  0.45521  0.75694  0.37601  1.0000
  C   C98       1.0  0.43722  0.71453  0.39816  1.0000
  C   C99       1.0  0.45774  0.69163  0.38604  1.0000
  C   C100      1.0  0.49937  0.71346  0.35682  1.0000
  C   C101      1.0  0.52047  0.75719  0.34469  1.0000
  C   C102      1.0  0.49676  0.77753  0.34609  1.0000
  H   H52       1.0  0.51543  0.69785  0.35354  1.0000
  H   H53       1.0  0.51079  0.80858  0.33304  1.0000
  H   H54       1.0  0.40629  0.69857  0.41396  1.0000
  C   C103      1.0  0.24778  0.69200  0.37574  1.0000
  C   C104      1.0  0.29028  0.71636  0.39712  1.0000
  C   C105      1.0  0.31323  0.75976  0.38477  1.0000
  C   C106      1.0  0.29140  0.77958  0.35566  1.0000
  C   C107      1.0  0.24763  0.75702  0.34418  1.0000
  C   C108      1.0  0.22720  0.71297  0.34582  1.0000
  H   H55       1.0  0.30706  0.81124  0.35208  1.0000
  H   H56       1.0  0.19607  0.69599  0.33352  1.0000
  H   H57       1.0  0.30618  0.70133  0.41288  1.0000
  C   C109      1.0  0.69780  0.44952  0.37574  1.0000
  C   C110      1.0  0.72220  0.43146  0.39743  1.0000
  C   C111      1.0  0.76560  0.45193  0.38515  1.0000
  C   C112      1.0  0.78543  0.49356  0.35587  1.0000
  C   C113      1.0  0.76282  0.51472  0.34423  1.0000
  C   C114      1.0  0.71876  0.49106  0.34569  1.0000
  H   H58       1.0  0.81709  0.50963  0.35293  1.0000
  H   H59       1.0  0.70177  0.50518  0.33326  1.0000
  H   H60       1.0  0.70720  0.40055  0.41347  1.0000
  C   C115      1.0  0.55551  0.24214  0.37781  1.0000
  C   C116      1.0  0.57343  0.28454  0.40005  1.0000
  C   C117      1.0  0.55307  0.30752  0.38671  1.0000
  C   C118      1.0  0.51161  0.28576  0.35630  1.0000
  C   C119      1.0  0.49044  0.24199  0.34484  1.0000
  C   C120      1.0  0.51412  0.22162  0.34680  1.0000
  H   H61       1.0  0.49560  0.30140  0.35246  1.0000
  H   H62       1.0  0.50008  0.19054  0.33406  1.0000
  H   H63       1.0  0.60432  0.30046  0.41623  1.0000
  C   C121      1.0  0.76249  0.30705  0.37704  1.0000
  C   C122      1.0  0.72016  0.28253  0.39978  1.0000
  C   C123      1.0  0.69725  0.23915  0.38707  1.0000
  C   C124      1.0  0.71907  0.21946  0.35693  1.0000
  C   C125      1.0  0.76279  0.24215  0.34474  1.0000
  C   C126      1.0  0.78305  0.28620  0.34621  1.0000
  H   H64       1.0  0.70347  0.18780  0.35355  1.0000
  H   H65       1.0  0.81409  0.30330  0.33304  1.0000
  H   H66       1.0  0.70419  0.29745  0.41600  1.0000
  C   C127      1.0  0.22656  0.44031  0.33854  1.0000
  C   C128      1.0  0.17927  0.35317  0.32139  1.0000
  N   N31       1.0  0.21404  0.37236  0.37278  1.0000
  C   C129      1.0  0.23804  0.41399  0.38473  1.0000
  C   C130      1.0  0.27008  0.42633  0.44927  1.0000
  O   O13       1.0  0.29091  0.40528  0.45325  1.0000
  N   N32       1.0  0.27641  0.45329  0.51669  1.0000
  H   H67       1.0  0.25890  0.46554  0.52394  1.0000
  H   H68       1.0  0.29673  0.45843  0.56334  1.0000
  C   C131      1.0  0.56481  0.78010  0.33863  1.0000
  C   C132      1.0  0.65196  0.82007  0.32163  1.0000
  N   N33       1.0  0.63271  0.83564  0.37282  1.0000
  C   C133      1.0  0.59106  0.81800  0.38459  1.0000
  C   C134      1.0  0.57869  0.83767  0.44912  1.0000
  O   O14       1.0  0.59960  0.87956  0.45278  1.0000
  N   N34       1.0  0.55167  0.81702  0.51642  1.0000
  H   H69       1.0  0.53933  0.78724  0.52359  1.0000
  H   H70       1.0  0.54632  0.83217  0.56279  1.0000
  C   C135      1.0  0.22480  0.77855  0.33832  1.0000
  C   C136      1.0  0.18500  0.82588  0.32160  1.0000
  N   N35       1.0  0.16949  0.79117  0.37317  1.0000
  C   C137      1.0  0.18712  0.76715  0.38494  1.0000
  C   C138      1.0  0.16753  0.73517  0.44966  1.0000
  O   O15       1.0  0.12566  0.71444  0.45422  1.0000
  N   N36       1.0  0.18829  0.72877  0.51667  1.0000
  H   H71       1.0  0.21809  0.74620  0.52352  1.0000
  H   H72       1.0  0.17321  0.70849  0.56345  1.0000
  C   C139      1.0  0.78431  0.55907  0.33838  1.0000
  C   C140      1.0  0.83155  0.64622  0.32155  1.0000
  N   N37       1.0  0.79677  0.62698  0.37292  1.0000
  C   C141      1.0  0.77275  0.58533  0.38462  1.0000
  C   C142      1.0  0.74077  0.57295  0.44934  1.0000
  O   O16       1.0  0.71988  0.59393  0.45339  1.0000
  N   N38       1.0  0.73442  0.54585  0.51645  1.0000
  H   H73       1.0  0.75182  0.53345  0.52335  1.0000
  H   H74       1.0  0.71398  0.54049  0.56295  1.0000
  C   C143      1.0  0.44609  0.21912  0.33854  1.0000
  C   C144      1.0  0.35895  0.17932  0.32140  1.0000
  N   N39       1.0  0.37812  0.16374  0.37286  1.0000
  C   C145      1.0  0.41975  0.18134  0.38480  1.0000
  C   C146      1.0  0.43206  0.16165  0.44942  1.0000
  O   O17       1.0  0.41098  0.11977  0.45351  1.0000
  N   N40       1.0  0.45903  0.18229  0.51682  1.0000
  H   H75       1.0  0.47131  0.21207  0.52398  1.0000
  H   H76       1.0  0.46416  0.16713  0.56352  1.0000
  C   C147      1.0  0.78575  0.22078  0.33836  1.0000
  C   C148      1.0  0.82573  0.17359  0.32121  1.0000
  N   N41       1.0  0.84135  0.20846  0.37229  1.0000
  C   C149      1.0  0.82371  0.23246  0.38411  1.0000
  C   C150      1.0  0.84344  0.26454  0.44855  1.0000
  O   O18       1.0  0.88534  0.28556  0.45190  1.0000
  N   N42       1.0  0.82286  0.27086  0.51608  1.0000
  H   H77       1.0  0.79310  0.25339  0.52345  1.0000
  H   H78       1.0  0.83806  0.29138  0.56237  1.0000
  N   N43       1.0  0.21375  0.23500  0.35848  1.0000
  C   C151      1.0  0.23773  0.21718  0.36447  1.0000
  H   H79       1.0  0.26320  0.23030  0.40525  1.0000
  N   N44       1.0  0.77013  0.97278  0.35881  1.0000
  C   C152      1.0  0.78798  0.01459  0.36481  1.0000
  H   H80       1.0  0.77483  0.02694  0.40547  1.0000
  N   N45       1.0  0.03237  0.79144  0.35893  1.0000
  C   C153      1.0  0.99056  0.76747  0.36495  1.0000
  H   H81       1.0  0.97822  0.74203  0.40580  1.0000
  N   N46       1.0  0.79712  0.76446  0.35905  1.0000
  C   C154      1.0  0.77319  0.78234  0.36513  1.0000
  H   H82       1.0  0.74771  0.76921  0.40585  1.0000
  N   N47       1.0  0.24068  0.02670  0.35872  1.0000
  C   C155      1.0  0.22282  0.98489  0.36477  1.0000
  H   H83       1.0  0.23591  0.97254  0.40562  1.0000
  N   N48       1.0  0.97843  0.20807  0.35851  1.0000
  C   C156      1.0  0.02024  0.23200  0.36459  1.0000
  H   H84       1.0  0.03261  0.25750  0.40524  1.0000
  N   N49       1.0  0.24070  0.63574  0.45976  1.0000
  C   C157      1.0  0.23627  0.59798  0.47283  1.0000
  H   H85       1.0  0.24934  0.59367  0.52937  1.0000
  N   N50       1.0  0.36927  0.59930  0.46090  1.0000
  C   C158      1.0  0.40712  0.63255  0.47349  1.0000
  H   H86       1.0  0.41184  0.65011  0.52994  1.0000
  N   N51       1.0  0.40567  0.76386  0.45908  1.0000
  C   C159      1.0  0.37233  0.76833  0.47163  1.0000
  H   H87       1.0  0.35476  0.75522  0.52794  1.0000
  N   N52       1.0  0.76947  0.36354  0.46030  1.0000
  C   C160      1.0  0.77411  0.40140  0.47290  1.0000
  H   H88       1.0  0.76133  0.40618  0.52937  1.0000
  N   N53       1.0  0.64154  0.40028  0.45970  1.0000
  C   C161      1.0  0.60379  0.36693  0.47279  1.0000
  H   H89       1.0  0.59947  0.34954  0.52932  1.0000
  N   N54       1.0  0.60487  0.23511  0.46156  1.0000
  C   C162      1.0  0.63811  0.23052  0.47438  1.0000
  H   H90       1.0  0.65560  0.24328  0.53096  1.0000
