data_image0
_chemical_formula_structural       CHC2HCHC2HNCHCH2NC3NHC4H3C6HCNCHNC6H6N2C6H6N2CNC6H6N2C6H6N2C3HNO2CHC3HNO2CHC3H2CHC3H2CHC3H2CHC3H2CHC3H2CHC3H2CHC2H2NC12H5CNC2NHN2C12H5CNC2NHN2C5H4NC12H5CNC2NHN2C12H5CNC2NHN2C3H2CHC3H2CHC3HNO2CHC3HNO2CHC3HNO2CHC3HNO2CHC3HNO2CHC3HNO2CHC5H6NCNO2C7HCNC2NHNC2HCH
_chemical_formula_sum              "C198 H117 N45 O18"
_cell_length_a       77.0303
_cell_length_b       77.0302
_cell_length_c       14.9182
_cell_angle_alpha    90
_cell_angle_beta     90
_cell_angle_gamma    120

_space_group_name_H-M_alt    "P 1"
_space_group_IT_number       1

loop_
  _space_group_symop_operation_xyz
  'x, y, z'

loop_
  _atom_site_type_symbol
  _atom_site_label
  _atom_site_symmetry_multiplicity
  _atom_site_fract_x
  _atom_site_fract_y
  _atom_site_fract_z
  _atom_site_occupancy
  C   C1        1.0  0.09020  0.55975  0.33957  1.0000
  H   H1        1.0  0.08267  0.56743  0.33167  1.0000
  C   C2        1.0  0.02531  0.51606  0.33044  1.0000
  C   C3        1.0  0.01165  0.51279  0.26023  1.0000
  H   H2        1.0  0.01689  0.52038  0.20095  1.0000
  C   C4        1.0  0.04560  0.53003  0.32002  1.0000
  H   H3        1.0  0.04939  0.54188  0.28100  1.0000
  C   C5        1.0  0.09066  0.52895  0.36525  1.0000
  C   C6        1.0  0.07952  0.53873  0.35208  1.0000
  H   H4        1.0  0.08342  0.51377  0.37527  1.0000
  N   N1        1.0  0.05954  0.52760  0.35489  1.0000
  C   C7        1.0  0.01754  0.50516  0.41079  1.0000
  H   H5        1.0  0.02683  0.50721  0.46368  1.0000
  C   C8        1.0  0.11134  0.57051  0.33873  1.0000
  H   H6        1.0  0.11836  0.58567  0.32869  1.0000
  H   H7        1.0  0.16360  0.63087  0.35383  1.0000
  N   N2        1.0  0.15478  0.59212  0.34781  1.0000
  C   C9        1.0  0.12267  0.56074  0.34993  1.0000
  C   C10       1.0  0.11179  0.53969  0.36334  1.0000
  C   C11       1.0  0.14414  0.57160  0.34668  1.0000
  N   N3        1.0  0.15475  0.56174  0.34026  1.0000
  H   H8        1.0  0.11914  0.53185  0.37262  1.0000
  C   C12       1.0  0.18718  0.62418  0.34520  1.0000
  C   C13       1.0  0.17881  0.63687  0.35090  1.0000
  C   C14       1.0  0.19113  0.65796  0.35313  1.0000
  C   C15       1.0  0.21220  0.66705  0.34816  1.0000
  H   H9        1.0  0.18461  0.66669  0.35763  1.0000
  H   H10       1.0  0.18969  0.52174  0.39064  1.0000
  H   H11       1.0  0.16744  0.53515  0.39302  1.0000
  C   C16       1.0  0.18706  0.56239  0.32617  1.0000
  C   C17       1.0  0.20842  0.63357  0.34273  1.0000
  C   C18       1.0  0.20629  0.57300  0.28588  1.0000
  C   C19       1.0  0.21352  0.54639  0.32324  1.0000
  C   C20       1.0  0.19420  0.53537  0.36167  1.0000
  C   C21       1.0  0.18107  0.54321  0.36232  1.0000
  H   H12       1.0  0.21129  0.58684  0.25791  1.0000
  C   C22       1.0  0.17509  0.57165  0.33395  1.0000
  N   N4        1.0  0.18452  0.59189  0.33603  1.0000
  C   C23       1.0  0.17518  0.60277  0.34316  1.0000
  H   H13       1.0  0.21549  0.62534  0.34009  1.0000
  N   N5        1.0  0.22394  0.68694  0.35330  1.0000
  C   C24       1.0  0.38266  0.56434  0.34525  1.0000
  C   C25       1.0  0.44710  0.53180  0.33959  1.0000
  C   C26       1.0  0.43633  0.54217  0.33875  1.0000
  C   C27       1.0  0.36997  0.54327  0.35087  1.0000
  C   C28       1.0  0.34887  0.53449  0.35307  1.0000
  C   C29       1.0  0.33979  0.54648  0.34817  1.0000
  H   H14       1.0  0.43941  0.51658  0.33170  1.0000
  H   H15       1.0  0.42117  0.53403  0.32871  1.0000
  H   H16       1.0  0.37597  0.53407  0.35376  1.0000
  H   H17       1.0  0.34014  0.51925  0.35754  1.0000
  H   H18       1.0  0.48509  0.66929  0.39059  1.0000
  H   H19       1.0  0.47169  0.63362  0.39299  1.0000
  N   N6        1.0  0.41472  0.56399  0.34784  1.0000
  N   N7        1.0  0.31989  0.53832  0.35329  1.0000
  C   C30       1.0  0.44250  0.81966  0.34529  1.0000
  C   C31       1.0  0.47505  0.91664  0.33961  1.0000
  C   C32       1.0  0.46468  0.89550  0.33876  1.0000
  C   C33       1.0  0.46357  0.82804  0.35086  1.0000
  C   C34       1.0  0.47234  0.81572  0.35307  1.0000
  C   C35       1.0  0.46035  0.79464  0.34823  1.0000
  H   H20       1.0  0.49027  0.92417  0.33173  1.0000
  H   H21       1.0  0.47281  0.88848  0.32873  1.0000
  H   H22       1.0  0.47277  0.84324  0.35368  1.0000
  H   H23       1.0  0.48759  0.82223  0.35746  1.0000
  H   H24       1.0  0.33756  0.81714  0.39071  1.0000
  H   H25       1.0  0.37322  0.83940  0.39310  1.0000
  N   N8        1.0  0.44285  0.85207  0.34786  1.0000
  N   N9        1.0  0.46851  0.78290  0.35332  1.0000
  C   C36       1.0  0.79592  0.33843  0.35324  1.0000
  N   N10       1.0  0.78417  0.31852  0.35663  1.0000
  C   C37       1.0  0.62558  0.44107  0.35049  1.0000
  C   C38       1.0  0.56169  0.47411  0.35809  1.0000
  C   C39       1.0  0.57224  0.46351  0.35875  1.0000
  C   C40       1.0  0.63832  0.46217  0.35070  1.0000
  C   C41       1.0  0.65941  0.47091  0.35275  1.0000
  C   C42       1.0  0.66842  0.45883  0.35328  1.0000
  H   H26       1.0  0.56957  0.48931  0.36640  1.0000
  H   H27       1.0  0.58741  0.47151  0.36844  1.0000
  H   H28       1.0  0.63237  0.47142  0.34858  1.0000
  H   H29       1.0  0.66819  0.48619  0.35232  1.0000
  H   H30       1.0  0.52317  0.33627  0.38663  1.0000
  H   H31       1.0  0.53650  0.37191  0.38911  1.0000
  N   N11       1.0  0.59358  0.44151  0.34893  1.0000
  N   N12       1.0  0.68833  0.46699  0.35665  1.0000
  C   C43       1.0  0.56575  0.18584  0.35035  1.0000
  C   C44       1.0  0.53273  0.08892  0.35803  1.0000
  C   C45       1.0  0.54332  0.11006  0.35868  1.0000
  C   C46       1.0  0.54465  0.17748  0.35072  1.0000
  C   C47       1.0  0.53590  0.18983  0.35276  1.0000
  C   C48       1.0  0.54798  0.21092  0.35307  1.0000
  H   H32       1.0  0.51753  0.08160  0.36633  1.0000
  H   H33       1.0  0.53532  0.11724  0.36838  1.0000
  H   H34       1.0  0.53540  0.16228  0.34877  1.0000
  H   H35       1.0  0.52062  0.18333  0.35248  1.0000
  H   H36       1.0  0.67056  0.18827  0.38672  1.0000
  H   H37       1.0  0.63492  0.16593  0.38906  1.0000
  N   N13       1.0  0.56531  0.15340  0.34886  1.0000
  N   N14       1.0  0.53982  0.22267  0.35653  1.0000
  C   C49       1.0  0.49078  0.51059  0.33045  1.0000
  C   C50       1.0  0.49404  0.50020  0.26024  1.0000
  C   C51       1.0  0.50791  0.49324  0.26845  1.0000
  H   H38       1.0  0.48644  0.49783  0.20098  1.0000
  N   N15       1.0  0.51145  0.48362  0.19560  1.0000
  O   O1        1.0  0.49579  0.46784  0.17310  1.0000
  O   O2        1.0  0.51819  0.49495  0.12854  1.0000
  C   C52       1.0  0.47681  0.51691  0.32006  1.0000
  H   H39       1.0  0.46495  0.50884  0.28109  1.0000
  C   C53       1.0  0.49626  0.98153  0.33047  1.0000
  C   C54       1.0  0.50665  0.99519  0.26025  1.0000
  C   C55       1.0  0.51361  0.01601  0.26846  1.0000
  H   H40       1.0  0.50902  0.98995  0.20100  1.0000
  N   N16       1.0  0.52324  0.02918  0.19562  1.0000
  O   O3        1.0  0.53901  0.02929  0.17312  1.0000
  O   O4        1.0  0.51191  0.02459  0.12854  1.0000
  C   C56       1.0  0.48994  0.96124  0.32008  1.0000
  H   H41       1.0  0.49801  0.95746  0.28112  1.0000
  C   C57       1.0  0.28838  0.53567  0.32269  1.0000
  C   C58       1.0  0.27634  0.53440  0.24844  1.0000
  C   C59       1.0  0.25669  0.53075  0.26001  1.0000
  H   H42       1.0  0.28211  0.53711  0.18474  1.0000
  H   H43       1.0  0.24887  0.53088  0.20477  1.0000
  C   C60       1.0  0.30875  0.54316  0.30738  1.0000
  H   H44       1.0  0.31525  0.55383  0.26092  1.0000
  C   C61       1.0  0.47116  0.75404  0.32271  1.0000
  C   C62       1.0  0.47242  0.74327  0.24845  1.0000
  C   C63       1.0  0.47607  0.72727  0.26001  1.0000
  H   H45       1.0  0.46971  0.74633  0.18476  1.0000
  H   H46       1.0  0.47593  0.71932  0.20476  1.0000
  C   C64       1.0  0.46367  0.76692  0.30743  1.0000
  H   H47       1.0  0.45298  0.76275  0.26100  1.0000
  C   C65       1.0  0.25280  0.71846  0.32270  1.0000
  C   C66       1.0  0.26357  0.73050  0.24844  1.0000
  C   C67       1.0  0.27957  0.75015  0.26001  1.0000
  H   H48       1.0  0.26050  0.72472  0.18474  1.0000
  H   H49       1.0  0.28753  0.75797  0.20477  1.0000
  C   C68       1.0  0.23992  0.69808  0.30740  1.0000
  H   H50       1.0  0.24408  0.69159  0.26088  1.0000
  C   C69       1.0  0.71957  0.46920  0.32483  1.0000
  C   C70       1.0  0.73126  0.47020  0.24962  1.0000
  C   C71       1.0  0.75099  0.47396  0.25958  1.0000
  H   H51       1.0  0.72517  0.46722  0.18651  1.0000
  H   H52       1.0  0.75856  0.47364  0.20378  1.0000
  C   C72       1.0  0.69913  0.46159  0.31155  1.0000
  H   H53       1.0  0.69233  0.45044  0.26740  1.0000
  C   C73       1.0  0.53761  0.25170  0.32473  1.0000
  C   C74       1.0  0.53659  0.26239  0.24955  1.0000
  C   C75       1.0  0.53284  0.27836  0.25957  1.0000
  H   H54       1.0  0.53955  0.25927  0.18641  1.0000
  H   H55       1.0  0.53315  0.28625  0.20378  1.0000
  C   C76       1.0  0.54520  0.23886  0.31136  1.0000
  H   H56       1.0  0.55633  0.24320  0.26710  1.0000
  C   C77       1.0  0.75513  0.28727  0.32483  1.0000
  C   C78       1.0  0.74442  0.27559  0.24966  1.0000
  C   C79       1.0  0.72845  0.25587  0.25967  1.0000
  H   H57       1.0  0.74752  0.28168  0.18655  1.0000
  H   H58       1.0  0.72053  0.24830  0.20390  1.0000
  C   C80       1.0  0.76798  0.30772  0.31151  1.0000
  H   H59       1.0  0.76362  0.31451  0.26735  1.0000
  C   C81       1.0  0.22065  0.65448  0.34489  1.0000
  C   C82       1.0  0.21922  0.56511  0.28400  1.0000
  H   H60       1.0  0.23587  0.66047  0.34481  1.0000
  H   H61       1.0  0.23313  0.57348  0.25581  1.0000
  N   N17       1.0  0.22739  0.54098  0.32241  1.0000
  C   C83       1.0  0.44609  0.56326  0.34995  1.0000
  C   C84       1.0  0.44444  0.62601  0.32621  1.0000
  C   C85       1.0  0.46715  0.57344  0.36334  1.0000
  C   C86       1.0  0.47789  0.56305  0.36525  1.0000
  C   C87       1.0  0.46811  0.54214  0.35212  1.0000
  C   C88       1.0  0.35235  0.56749  0.34498  1.0000
  C   C89       1.0  0.37326  0.57618  0.34284  1.0000
  C   C90       1.0  0.43383  0.63462  0.28591  1.0000
  C   C91       1.0  0.44173  0.65545  0.28400  1.0000
  C   C92       1.0  0.46044  0.66847  0.32323  1.0000
  C   C93       1.0  0.47147  0.66017  0.36163  1.0000
  C   C94       1.0  0.46363  0.63920  0.36230  1.0000
  H   H62       1.0  0.49307  0.57099  0.37527  1.0000
  H   H63       1.0  0.38150  0.59148  0.34026  1.0000
  H   H64       1.0  0.34636  0.57673  0.34496  1.0000
  H   H65       1.0  0.41999  0.62579  0.25797  1.0000
  H   H66       1.0  0.43335  0.66099  0.25585  1.0000
  C   C95       1.0  0.43519  0.60478  0.33398  1.0000
  N   N18       1.0  0.41494  0.59396  0.33607  1.0000
  C   C96       1.0  0.40407  0.57374  0.34320  1.0000
  C   C97       1.0  0.43524  0.57388  0.34669  1.0000
  N   N19       1.0  0.44509  0.59434  0.34028  1.0000
  H   H67       1.0  0.47499  0.58862  0.37260  1.0000
  N   N20       1.0  0.46585  0.68775  0.32239  1.0000
  N   N21       1.0  0.47925  0.53328  0.35490  1.0000
  C   C98       1.0  0.44358  0.88418  0.34995  1.0000
  C   C99       1.0  0.38083  0.81978  0.32611  1.0000
  C   C100      1.0  0.43341  0.89506  0.36334  1.0000
  C   C101      1.0  0.44379  0.91618  0.36525  1.0000
  C   C102      1.0  0.46471  0.92732  0.35213  1.0000
  C   C103      1.0  0.43933  0.78619  0.34512  1.0000
  C   C104      1.0  0.43065  0.79842  0.34295  1.0000
  C   C105      1.0  0.37222  0.80057  0.28577  1.0000
  C   C106      1.0  0.35140  0.78764  0.28387  1.0000
  C   C107      1.0  0.33837  0.79332  0.32322  1.0000
  C   C108      1.0  0.34667  0.81264  0.36165  1.0000
  C   C109      1.0  0.36764  0.82577  0.36224  1.0000
  H   H68       1.0  0.43585  0.92342  0.37526  1.0000
  H   H69       1.0  0.41535  0.79135  0.34041  1.0000
  H   H70       1.0  0.43010  0.77097  0.34511  1.0000
  H   H71       1.0  0.38105  0.79557  0.25779  1.0000
  H   H72       1.0  0.34586  0.77372  0.25568  1.0000
  C   C110      1.0  0.40207  0.83176  0.33394  1.0000
  N   N22       1.0  0.41288  0.82232  0.33605  1.0000
  C   C111      1.0  0.43309  0.83166  0.34321  1.0000
  C   C112      1.0  0.43296  0.86271  0.34669  1.0000
  N   N23       1.0  0.41251  0.85210  0.34024  1.0000
  H   H73       1.0  0.41822  0.88771  0.37259  1.0000
  N   N24       1.0  0.31910  0.77945  0.32238  1.0000
  N   N25       1.0  0.47357  0.94731  0.35492  1.0000
  C   C113      1.0  0.78752  0.35104  0.35638  1.0000
  C   C114      1.0  0.79978  0.37195  0.35432  1.0000
  C   C115      1.0  0.80199  0.43228  0.28321  1.0000
  C   C116      1.0  0.78902  0.44014  0.28123  1.0000
  C   C117      1.0  0.79471  0.45889  0.32005  1.0000
  H   H74       1.0  0.79276  0.38024  0.35603  1.0000
  H   H75       1.0  0.77232  0.34507  0.36022  1.0000
  H   H76       1.0  0.79698  0.41839  0.25588  1.0000
  H   H77       1.0  0.77506  0.43167  0.25364  1.0000
  N   N26       1.0  0.78076  0.46420  0.31983  1.0000
  C   C118      1.0  0.56231  0.44246  0.34567  1.0000
  C   C119      1.0  0.56384  0.37960  0.32308  1.0000
  C   C120      1.0  0.54128  0.43254  0.33197  1.0000
  C   C121      1.0  0.53074  0.44313  0.33078  1.0000
  C   C122      1.0  0.54072  0.46405  0.34429  1.0000
  C   C123      1.0  0.65581  0.43782  0.35645  1.0000
  C   C124      1.0  0.63490  0.42917  0.35439  1.0000
  C   C125      1.0  0.57456  0.37105  0.28323  1.0000
  C   C126      1.0  0.56670  0.35023  0.28123  1.0000
  C   C127      1.0  0.54795  0.33716  0.32007  1.0000
  C   C128      1.0  0.53681  0.34541  0.35787  1.0000
  C   C129      1.0  0.54459  0.36637  0.35843  1.0000
  H   H78       1.0  0.51559  0.43538  0.31965  1.0000
  H   H79       1.0  0.62660  0.41386  0.35612  1.0000
  H   H80       1.0  0.66178  0.42859  0.36029  1.0000
  H   H81       1.0  0.58845  0.37993  0.25591  1.0000
  H   H82       1.0  0.57516  0.34473  0.25362  1.0000
  C   C130      1.0  0.57312  0.40081  0.33185  1.0000
  N   N27       1.0  0.59334  0.41153  0.33718  1.0000
  C   C131      1.0  0.60419  0.43171  0.34609  1.0000
  C   C132      1.0  0.57308  0.43173  0.34435  1.0000
  N   N28       1.0  0.56324  0.41130  0.33632  1.0000
  H   H83       1.0  0.53330  0.41740  0.32132  1.0000
  N   N29       1.0  0.54263  0.31791  0.31983  1.0000
  N   N30       1.0  0.52975  0.47306  0.33962  1.0000
  C   C133      1.0  0.56437  0.12119  0.34565  1.0000
  C   C134      1.0  0.62723  0.18560  0.32316  1.0000
  C   C135      1.0  0.57430  0.11008  0.33196  1.0000
  C   C136      1.0  0.56371  0.08895  0.33081  1.0000
  C   C137      1.0  0.54279  0.07801  0.34428  1.0000
  C   C138      1.0  0.56899  0.21932  0.35610  1.0000
  C   C139      1.0  0.57764  0.20706  0.35405  1.0000
  C   C140      1.0  0.63577  0.20486  0.28335  1.0000
  C   C141      1.0  0.65659  0.21784  0.28144  1.0000
  C   C142      1.0  0.66966  0.21216  0.32026  1.0000
  C   C143      1.0  0.66142  0.19277  0.35799  1.0000
  C   C144      1.0  0.64046  0.17959  0.35859  1.0000
  H   H84       1.0  0.57147  0.08156  0.31971  1.0000
  H   H85       1.0  0.59295  0.21408  0.35567  1.0000
  H   H86       1.0  0.57822  0.23452  0.35982  1.0000
  H   H87       1.0  0.62689  0.20987  0.25601  1.0000
  H   H88       1.0  0.66209  0.23180  0.25387  1.0000
  C   C145      1.0  0.60602  0.17365  0.33186  1.0000
  N   N31       1.0  0.59529  0.18315  0.33715  1.0000
  C   C146      1.0  0.57511  0.17382  0.34601  1.0000
  C   C147      1.0  0.57510  0.14270  0.34432  1.0000
  N   N32       1.0  0.59553  0.15329  0.33634  1.0000
  H   H89       1.0  0.58944  0.11724  0.32138  1.0000
  N   N33       1.0  0.68891  0.22612  0.32013  1.0000
  N   N34       1.0  0.53379  0.05803  0.33963  1.0000
  C   C148      1.0  0.51867  0.49638  0.34996  1.0000
  C   C149      1.0  0.51540  0.50679  0.42017  1.0000
  C   C150      1.0  0.50169  0.51372  0.41077  1.0000
  H   H90       1.0  0.52299  0.50942  0.47960  1.0000
  H   H91       1.0  0.49966  0.52098  0.46366  1.0000
  C   C151      1.0  0.53299  0.49058  0.36208  1.0000
  H   H92       1.0  0.54586  0.50018  0.39150  1.0000
  C   C152      1.0  0.51046  0.02362  0.34997  1.0000
  C   C153      1.0  0.50005  0.00995  0.42017  1.0000
  C   C154      1.0  0.49312  0.98931  0.41078  1.0000
  H   H93       1.0  0.49743  0.01491  0.47961  1.0000
  H   H94       1.0  0.48586  0.98002  0.46367  1.0000
  C   C155      1.0  0.51627  0.04375  0.36209  1.0000
  H   H95       1.0  0.50666  0.04702  0.39144  1.0000
  C   C156      1.0  0.24836  0.52830  0.34660  1.0000
  C   C157      1.0  0.25994  0.52864  0.42072  1.0000
  C   C158      1.0  0.27990  0.53253  0.41011  1.0000
  H   H96       1.0  0.25434  0.52731  0.48424  1.0000
  N   N35       1.0  0.29170  0.53436  0.48621  1.0000
  O   O5        1.0  0.29399  0.54840  0.53678  1.0000
  O   O6        1.0  0.28414  0.51837  0.53068  1.0000
  C   C159      1.0  0.23014  0.52752  0.35964  1.0000
  H   H97       1.0  0.22052  0.51831  0.40518  1.0000
  C   C160      1.0  0.47853  0.72139  0.34658  1.0000
  C   C161      1.0  0.47820  0.73264  0.42072  1.0000
  C   C162      1.0  0.47430  0.74870  0.41012  1.0000
  H   H98       1.0  0.47953  0.72837  0.48424  1.0000
  N   N36       1.0  0.47248  0.75868  0.48623  1.0000
  O   O7        1.0  0.45845  0.74692  0.53682  1.0000
  O   O8        1.0  0.48847  0.76711  0.53067  1.0000
  C   C163      1.0  0.47932  0.70396  0.35962  1.0000
  H   H99       1.0  0.48853  0.70354  0.40514  1.0000
  C   C164      1.0  0.28545  0.75848  0.34660  1.0000
  C   C165      1.0  0.27420  0.74689  0.42072  1.0000
  C   C166      1.0  0.25814  0.72694  0.41011  1.0000
  H   H100      1.0  0.27848  0.75250  0.48424  1.0000
  N   N37       1.0  0.24816  0.71513  0.48621  1.0000
  O   O9        1.0  0.25992  0.71285  0.53679  1.0000
  O   O10       1.0  0.23974  0.72270  0.53068  1.0000
  C   C167      1.0  0.30289  0.77670  0.35964  1.0000
  H   H101      1.0  0.30331  0.78632  0.40520  1.0000
  C   C168      1.0  0.75973  0.47677  0.34543  1.0000
  C   C169      1.0  0.74848  0.47668  0.42042  1.0000
  C   C170      1.0  0.72846  0.47268  0.41146  1.0000
  H   H102      1.0  0.75438  0.47826  0.48346  1.0000
  N   N38       1.0  0.71698  0.47109  0.48843  1.0000
  O   O11       1.0  0.71496  0.45725  0.53964  1.0000
  O   O12       1.0  0.72470  0.48724  0.53181  1.0000
  C   C171      1.0  0.77805  0.47769  0.35712  1.0000
  H   H103      1.0  0.78778  0.48699  0.40210  1.0000
  C   C172      1.0  0.53006  0.28431  0.34545  1.0000
  C   C173      1.0  0.53016  0.27315  0.42041  1.0000
  C   C174      1.0  0.53415  0.25711  0.41139  1.0000
  H   H104      1.0  0.52860  0.27747  0.48347  1.0000
  N   N39       1.0  0.53575  0.24722  0.48834  1.0000
  O   O13       1.0  0.54962  0.25905  0.53948  1.0000
  O   O14       1.0  0.51962  0.23881  0.53180  1.0000
  C   C175      1.0  0.52915  0.30172  0.35717  1.0000
  H   H105      1.0  0.51986  0.30215  0.40221  1.0000
  C   C176      1.0  0.72254  0.24712  0.34553  1.0000
  C   C177      1.0  0.73372  0.25837  0.42048  1.0000
  C   C178      1.0  0.74975  0.27839  0.41147  1.0000
  H   H106      1.0  0.72942  0.25248  0.48353  1.0000
  N   N40       1.0  0.75967  0.28987  0.48841  1.0000
  O   O15       1.0  0.74786  0.29190  0.53969  1.0000
  O   O16       1.0  0.76809  0.28214  0.53171  1.0000
  C   C179      1.0  0.70512  0.22882  0.35730  1.0000
  H   H107      1.0  0.70473  0.21904  0.40189  1.0000
  C   C180      1.0  0.82100  0.38127  0.35043  1.0000
  C   C181      1.0  0.91792  0.44516  0.35814  1.0000
  C   C182      1.0  0.89678  0.43462  0.35874  1.0000
  C   C183      1.0  0.82936  0.36853  0.35067  1.0000
  C   C184      1.0  0.81701  0.34744  0.35271  1.0000
  H   H108      1.0  0.92524  0.43728  0.36635  1.0000
  H   H109      1.0  0.88960  0.41944  0.36836  1.0000
  H   H110      1.0  0.84456  0.37449  0.34858  1.0000
  H   H111      1.0  0.82351  0.33866  0.35233  1.0000
  H   H112      1.0  0.81859  0.48367  0.38660  1.0000
  H   H113      1.0  0.84091  0.47035  0.38903  1.0000
  N   N41       1.0  0.85344  0.41327  0.34890  1.0000
  C   C185      1.0  0.99083  0.49893  0.26847  1.0000
  N   N42       1.0  0.97766  0.49538  0.19563  1.0000
  O   O17       1.0  0.97755  0.51104  0.17307  1.0000
  O   O18       1.0  0.98225  0.48863  0.12858  1.0000
  C   C186      1.0  0.88565  0.44454  0.34568  1.0000
  C   C187      1.0  0.82126  0.44300  0.32304  1.0000
  C   C188      1.0  0.89677  0.46558  0.33203  1.0000
  C   C189      1.0  0.91790  0.47612  0.33087  1.0000
  C   C190      1.0  0.92883  0.46614  0.34439  1.0000
  C   C191      1.0  0.81409  0.47003  0.35779  1.0000
  C   C192      1.0  0.82727  0.46225  0.35841  1.0000
  H   H114      1.0  0.92529  0.49126  0.31975  1.0000
  C   C193      1.0  0.83319  0.43373  0.33178  1.0000
  N   N43       1.0  0.82369  0.41351  0.33712  1.0000
  C   C194      1.0  0.83302  0.40265  0.34603  1.0000
  C   C195      1.0  0.86415  0.43377  0.34432  1.0000
  N   N44       1.0  0.85356  0.44361  0.33628  1.0000
  H   H115      1.0  0.88961  0.47356  0.32139  1.0000
  N   N45       1.0  0.94881  0.47710  0.33967  1.0000
  C   C196      1.0  0.98322  0.48818  0.35001  1.0000
  C   C197      1.0  0.99690  0.49146  0.42021  1.0000
  H   H116      1.0  0.99193  0.48388  0.47967  1.0000
  C   C198      1.0  0.96309  0.47386  0.36216  1.0000
  H   H117      1.0  0.95981  0.46100  0.39164  1.0000
