data_image0
_chemical_formula_structural       C5H6C4H4C4H2NC3H2NCHC12H6C6H3C9H3C8H4C5HC6H2C4H3CH3NC4H3CH3NC3H3NCHC2HCH2C3HC2HNC2HCHC2H3
_chemical_formula_sum              "C90 H60 N6"
_cell_length_a       45.2779
_cell_length_b       45.2836
_cell_length_c       14.3627
_cell_angle_alpha    90
_cell_angle_beta     90
_cell_angle_gamma    119.994

_space_group_name_H-M_alt    "P 1"
_space_group_IT_number       1

loop_
  _space_group_symop_operation_xyz
  'x, y, z'

loop_
  _atom_site_type_symbol
  _atom_site_label
  _atom_site_symmetry_multiplicity
  _atom_site_fract_x
  _atom_site_fract_y
  _atom_site_fract_z
  _atom_site_occupancy
  C   C1        1.0  0.42320  0.59026  0.38770  1.0000
  C   C2        1.0  0.46539  0.84405  0.38431  1.0000
  C   C3        1.0  0.47975  0.87974  0.37815  1.0000
  C   C4        1.0  0.21147  0.63251  0.38422  1.0000
  C   C5        1.0  0.17577  0.61117  0.37804  1.0000
  H   H1        1.0  0.43366  0.54995  0.38637  1.0000
  H   H2        1.0  0.48132  0.83420  0.39112  1.0000
  H   H3        1.0  0.50574  0.89478  0.38026  1.0000
  H   H4        1.0  0.22132  0.65829  0.39091  1.0000
  H   H5        1.0  0.16073  0.62211  0.37997  1.0000
  H   H6        1.0  0.39756  0.57443  0.39778  1.0000
  C   C6        1.0  0.44451  0.57588  0.38125  1.0000
  C   C7        1.0  0.64337  0.45399  0.37099  1.0000
  C   C8        1.0  0.60155  0.20043  0.36891  1.0000
  C   C9        1.0  0.58727  0.16468  0.36896  1.0000
  H   H7        1.0  0.63282  0.49413  0.36350  1.0000
  H   H8        1.0  0.58576  0.21035  0.36004  1.0000
  H   H9        1.0  0.56149  0.14974  0.35979  1.0000
  H   H10       1.0  0.66916  0.46985  0.36402  1.0000
  C   C10       1.0  0.62191  0.46828  0.37086  1.0000
  C   C11       1.0  0.55401  0.50640  0.39755  1.0000
  C   C12       1.0  0.55324  0.52423  0.31822  1.0000
  C   C13       1.0  0.53356  0.54022  0.31713  1.0000
  H   H11       1.0  0.53338  0.55264  0.25779  1.0000
  H   H12       1.0  0.56700  0.52560  0.26011  1.0000
  N   N1        1.0  0.57373  0.49225  0.39329  1.0000
  C   C14       1.0  0.54906  0.05869  0.39772  1.0000
  C   C15       1.0  0.53133  0.04003  0.31833  1.0000
  C   C16       1.0  0.51539  0.00437  0.31740  1.0000
  H   H13       1.0  0.50304  0.99172  0.25804  1.0000
  H   H14       1.0  0.53003  0.05238  0.26005  1.0000
  N   N2        1.0  0.56319  0.09255  0.39327  1.0000
  C   C17       1.0  0.05113  0.52214  0.31738  1.0000
  H   H15       1.0  0.06378  0.52245  0.25799  1.0000
  C   C18       1.0  0.42968  0.82227  0.38001  1.0000
  C   C19       1.0  0.43696  0.62586  0.37939  1.0000
  C   C20       1.0  0.23325  0.61858  0.38002  1.0000
  C   C21       1.0  0.48006  0.59661  0.36600  1.0000
  C   C22       1.0  0.49350  0.63226  0.35813  1.0000
  C   C23       1.0  0.47236  0.64673  0.36490  1.0000
  C   C24       1.0  0.45886  0.89461  0.36726  1.0000
  C   C25       1.0  0.42309  0.87247  0.36343  1.0000
  C   C26       1.0  0.40866  0.83686  0.36989  1.0000
  C   C27       1.0  0.16092  0.57542  0.36721  1.0000
  C   C28       1.0  0.18307  0.56180  0.36352  1.0000
  C   C29       1.0  0.21867  0.58298  0.37003  1.0000
  H   H16       1.0  0.51905  0.64824  0.34709  1.0000
  H   H17       1.0  0.48318  0.67265  0.35830  1.0000
  H   H18       1.0  0.38265  0.82180  0.36627  1.0000
  H   H19       1.0  0.40701  0.88208  0.35558  1.0000
  H   H20       1.0  0.17345  0.53610  0.35572  1.0000
  H   H21       1.0  0.23374  0.57204  0.36650  1.0000
  C   C30       1.0  0.33045  0.67096  0.38587  1.0000
  C   C31       1.0  0.34879  0.70702  0.38581  1.0000
  C   C32       1.0  0.38487  0.72509  0.38586  1.0000
  C   C33       1.0  0.40258  0.70675  0.38579  1.0000
  C   C34       1.0  0.38458  0.67067  0.38585  1.0000
  C   C35       1.0  0.34853  0.65296  0.38580  1.0000
  H   H22       1.0  0.42879  0.71977  0.38548  1.0000
  H   H23       1.0  0.33577  0.72020  0.38553  1.0000
  H   H24       1.0  0.33534  0.62676  0.38550  1.0000
  C   C36       1.0  0.26649  0.63800  0.38353  1.0000
  C   C37       1.0  0.29700  0.65427  0.38516  1.0000
  C   C38       1.0  0.41755  0.63968  0.38326  1.0000
  C   C39       1.0  0.40128  0.65393  0.38507  1.0000
  C   C40       1.0  0.40161  0.75853  0.38515  1.0000
  C   C41       1.0  0.41586  0.78903  0.38351  1.0000
  C   C42       1.0  0.12587  0.55359  0.35786  1.0000
  C   C43       1.0  0.47207  0.92965  0.35804  1.0000
  C   C44       1.0  0.50184  0.58332  0.35657  1.0000
  H   H25       1.0  0.52394  0.59734  0.32373  1.0000
  H   H26       1.0  0.45787  0.93773  0.32625  1.0000
  H   H27       1.0  0.11781  0.53131  0.32609  1.0000
  C   C45       1.0  0.63703  0.22213  0.38039  1.0000
  C   C46       1.0  0.62950  0.41842  0.38008  1.0000
  C   C47       1.0  0.58604  0.44748  0.37960  1.0000
  C   C48       1.0  0.57254  0.41185  0.38891  1.0000
  C   C49       1.0  0.59385  0.39748  0.38924  1.0000
  C   C50       1.0  0.60799  0.14963  0.38023  1.0000
  C   C51       1.0  0.64352  0.17175  0.39192  1.0000
  C   C52       1.0  0.65787  0.20742  0.39212  1.0000
  H   H28       1.0  0.54679  0.39578  0.39571  1.0000
  H   H29       1.0  0.58294  0.37156  0.39596  1.0000
  H   H30       1.0  0.68373  0.22243  0.40058  1.0000
  H   H31       1.0  0.65952  0.16207  0.40058  1.0000
  C   C53       1.0  0.71782  0.33740  0.37869  1.0000
  C   C54       1.0  0.68175  0.31932  0.37869  1.0000
  C   C55       1.0  0.66401  0.33764  0.37870  1.0000
  C   C56       1.0  0.68200  0.37371  0.37870  1.0000
  C   C57       1.0  0.71806  0.39144  0.37870  1.0000
  H   H32       1.0  0.63781  0.32461  0.37882  1.0000
  C   C58       1.0  0.64897  0.40462  0.37950  1.0000
  C   C59       1.0  0.66528  0.39043  0.37902  1.0000
  C   C60       1.0  0.66503  0.28589  0.37904  1.0000
  C   C61       1.0  0.65083  0.25538  0.37960  1.0000
  C   C62       1.0  0.59492  0.11440  0.37975  1.0000
  C   C63       1.0  0.56389  0.46057  0.37900  1.0000
  H   H33       1.0  0.53902  0.44439  0.37049  1.0000
  H   H34       1.0  0.61116  0.10574  0.37207  1.0000
  C   C64       1.0  0.51421  0.53914  0.39559  1.0000
  C   C65       1.0  0.51420  0.52072  0.47623  1.0000
  C   C66       1.0  0.53483  0.50484  0.47802  1.0000
  C   C67       1.0  0.49321  0.51839  0.55948  1.0000
  H   H35       1.0  0.47792  0.53064  0.55023  1.0000
  H   H36       1.0  0.50977  0.53049  0.61930  1.0000
  H   H37       1.0  0.47551  0.49170  0.57586  1.0000
  C   C68       1.0  0.53654  0.48704  0.56395  1.0000
  H   H38       1.0  0.55410  0.47725  0.55878  1.0000
  H   H39       1.0  0.51138  0.46545  0.57946  1.0000
  H   H40       1.0  0.54511  0.50463  0.62278  1.0000
  N   N3        1.0  0.49591  0.55502  0.39395  1.0000
  C   C69       1.0  0.51640  0.98617  0.39607  1.0000
  C   C70       1.0  0.53469  0.00462  0.47682  1.0000
  C   C71       1.0  0.55050  0.04112  0.47845  1.0000
  C   C72       1.0  0.53691  0.98600  0.56032  1.0000
  H   H41       1.0  0.52473  0.95848  0.55114  1.0000
  H   H42       1.0  0.52468  0.99044  0.61987  1.0000
  H   H43       1.0  0.56359  0.99506  0.57709  1.0000
  C   C73       1.0  0.56811  0.06066  0.56451  1.0000
  H   H44       1.0  0.57784  0.08800  0.55923  1.0000
  H   H45       1.0  0.58972  0.05717  0.58047  1.0000
  H   H46       1.0  0.55042  0.05161  0.62310  1.0000
  N   N4        1.0  0.50060  0.95200  0.39446  1.0000
  C   C74       1.0  0.06934  0.54136  0.39604  1.0000
  C   C75       1.0  0.05088  0.54117  0.47680  1.0000
  C   C76       1.0  0.06951  0.56202  0.56030  1.0000
  H   H47       1.0  0.09703  0.57737  0.55110  1.0000
  H   H48       1.0  0.06508  0.54536  0.61984  1.0000
  H   H49       1.0  0.06044  0.57964  0.57708  1.0000
  N   N5        1.0  0.10351  0.55974  0.39440  1.0000
  C   C77       1.0  0.85507  0.41220  0.36882  1.0000
  H   H50       1.0  0.84516  0.38649  0.35985  1.0000
  C   C78       1.0  0.83335  0.42595  0.38041  1.0000
  C   C79       1.0  0.84804  0.46149  0.39227  1.0000
  H   H51       1.0  0.83301  0.47231  0.40084  1.0000
  C   C80       1.0  0.73615  0.37346  0.37869  1.0000
  H   H52       1.0  0.73086  0.32423  0.37881  1.0000
  H   H53       1.0  0.73123  0.41765  0.37883  1.0000
  C   C81       1.0  0.80009  0.40648  0.37961  1.0000
  C   C82       1.0  0.76958  0.39017  0.37904  1.0000
  C   C83       1.0  0.89081  0.43367  0.36886  1.0000
  H   H54       1.0  0.90577  0.42286  0.35962  1.0000
  C   C84       1.0  0.99681  0.50147  0.39773  1.0000
  C   C85       1.0  0.01547  0.50241  0.31833  1.0000
  H   H55       1.0  0.00312  0.48877  0.26004  1.0000
  N   N6        1.0  0.96295  0.48174  0.39329  1.0000
  C   C86       1.0  0.90586  0.46944  0.38028  1.0000
  C   C87       1.0  0.88371  0.48282  0.39210  1.0000
  H   H56       1.0  0.89338  0.50849  0.40087  1.0000
  C   C88       1.0  0.94108  0.49161  0.37983  1.0000
  H   H57       1.0  0.94973  0.51650  0.37217  1.0000
  C   C89       1.0  0.01439  0.52049  0.47845  1.0000
  C   C90       1.0  0.99485  0.51855  0.56453  1.0000
  H   H58       1.0  0.96751  0.50094  0.55927  1.0000
  H   H59       1.0  0.99833  0.54364  0.58050  1.0000
  H   H60       1.0  0.00390  0.50991  0.62311  1.0000
