data_image0
_chemical_formula_structural       C8HC7HCH4C4O3C3H2C2HNO2NHC3H2C2HNO2NHC3H2C2HNO2NHC3H2C2HNO2NHC3H2C2HNO2NHC3H2C2HNO2NHOC8HC7HCH4C4O4C8HC7HCH4C4O4C7H3NO2NHC7H3NO2NHC7H3NO2NHC7H3NO2NHC7H3NO2NHC7H3NO2NH
_chemical_formula_sum              "C132 H66 O36 N24"
_cell_length_a       38.3699
_cell_length_b       38.3699
_cell_length_c       15.0471
_cell_angle_alpha    89.9994
_cell_angle_beta     90.0006
_cell_angle_gamma    120

_space_group_name_H-M_alt    "P 1"
_space_group_IT_number       1

loop_
  _space_group_symop_operation_xyz
  'x, y, z'

loop_
  _atom_site_type_symbol
  _atom_site_label
  _atom_site_symmetry_multiplicity
  _atom_site_fract_x
  _atom_site_fract_y
  _atom_site_fract_z
  _atom_site_occupancy
  C   C1        1.0  0.02140  0.52569  0.33990  1.0000
  C   C2        1.0  0.98537  0.48746  0.34070  1.0000
  C   C3        1.0  0.98763  0.45161  0.34205  1.0000
  C   C4        1.0  0.02542  0.45410  0.33940  1.0000
  C   C5        1.0  0.06142  0.49142  0.33564  1.0000
  C   C6        1.0  0.05953  0.52756  0.33783  1.0000
  C   C7        1.0  0.94805  0.48642  0.34058  1.0000
  C   C8        1.0  0.09459  0.56591  0.33596  1.0000
  H   H1        1.0  0.02672  0.42800  0.33910  1.0000
  C   C9        1.0  0.01918  0.56190  0.34016  1.0000
  C   C10       1.0  0.98104  0.56004  0.33834  1.0000
  C   C11       1.0  0.97915  0.59618  0.33670  1.0000
  C   C12       1.0  0.01516  0.63349  0.34060  1.0000
  C   C13       1.0  0.05295  0.63598  0.34299  1.0000
  C   C14       1.0  0.05521  0.60013  0.34119  1.0000
  C   C15       1.0  0.94598  0.52169  0.33619  1.0000
  H   H2        1.0  0.01386  0.65959  0.34056  1.0000
  C   C16       1.0  0.09252  0.60117  0.34083  1.0000
  H   H3        1.0  0.91796  0.51842  0.33264  1.0000
  H   H4        1.0  0.92141  0.45986  0.34215  1.0000
  H   H5        1.0  0.11916  0.62772  0.34256  1.0000
  H   H6        1.0  0.12262  0.56919  0.33218  1.0000
  C   C17       1.0  0.09760  0.49034  0.32367  1.0000
  C   C18       1.0  0.95365  0.41254  0.34800  1.0000
  C   C19       1.0  0.94300  0.59731  0.32479  1.0000
  C   C20       1.0  0.08696  0.67504  0.34901  1.0000
  O   O1        1.0  0.09751  0.46597  0.25831  1.0000
  O   O2        1.0  0.94861  0.39352  0.42680  1.0000
  O   O3        1.0  0.09188  0.69423  0.42752  1.0000
  C   C21       1.0  0.34074  0.49645  0.29581  1.0000
  C   C22       1.0  0.31035  0.53939  0.29672  1.0000
  C   C23       1.0  0.34341  0.53402  0.28008  1.0000
  H   H7        1.0  0.31326  0.56709  0.28633  1.0000
  H   H8        1.0  0.36993  0.55809  0.25917  1.0000
  C   C24       1.0  0.18399  0.51780  0.28228  1.0000
  C   C25       1.0  0.22018  0.51741  0.26837  1.0000
  H   H9        1.0  0.17027  0.52234  0.22885  1.0000
  N   N1        1.0  0.23614  0.52136  0.18152  1.0000
  O   O4        1.0  0.21214  0.49344  0.13131  1.0000
  O   O5        1.0  0.24456  0.55449  0.14698  1.0000
  N   N2        1.0  0.37393  0.49260  0.28405  1.0000
  H   H10       1.0  0.39081  0.50597  0.23241  1.0000
  C   C26       1.0  0.56793  0.91166  0.29529  1.0000
  C   C27       1.0  0.52481  0.83835  0.29677  1.0000
  C   C28       1.0  0.53028  0.87680  0.27990  1.0000
  H   H11       1.0  0.49708  0.81359  0.28652  1.0000
  H   H12       1.0  0.50627  0.87931  0.25886  1.0000
  C   C29       1.0  0.54631  0.73347  0.28278  1.0000
  C   C30       1.0  0.54666  0.77002  0.26872  1.0000
  H   H13       1.0  0.54176  0.71516  0.22943  1.0000
  N   N3        1.0  0.54270  0.78196  0.18183  1.0000
  O   O6        1.0  0.57061  0.78587  0.13164  1.0000
  O   O7        1.0  0.50957  0.75722  0.14733  1.0000
  N   N4        1.0  0.57196  0.94875  0.28314  1.0000
  H   H14       1.0  0.55846  0.95220  0.23171  1.0000
  C   C31       1.0  0.15248  0.72351  0.29579  1.0000
  C   C32       1.0  0.22580  0.75383  0.29660  1.0000
  C   C33       1.0  0.18735  0.72080  0.27997  1.0000
  H   H15       1.0  0.25057  0.75089  0.28615  1.0000
  H   H16       1.0  0.18487  0.69428  0.25900  1.0000
  C   C34       1.0  0.33069  0.88014  0.28241  1.0000
  C   C35       1.0  0.29409  0.84398  0.26842  1.0000
  H   H17       1.0  0.34896  0.89388  0.22899  1.0000
  N   N5        1.0  0.28208  0.82808  0.18154  1.0000
  O   O8        1.0  0.27819  0.85212  0.13141  1.0000
  O   O9        1.0  0.30675  0.81963  0.14695  1.0000
  N   N6        1.0  0.11543  0.69035  0.28409  1.0000
  H   H18       1.0  0.11189  0.67347  0.23242  1.0000
  C   C36       1.0  0.70014  0.59150  0.29503  1.0000
  C   C37       1.0  0.73027  0.54833  0.29681  1.0000
  C   C38       1.0  0.69729  0.55381  0.27991  1.0000
  H   H19       1.0  0.72725  0.52056  0.28678  1.0000
  H   H20       1.0  0.67074  0.52978  0.25909  1.0000
  C   C39       1.0  0.85659  0.56966  0.28283  1.0000
  C   C40       1.0  0.82044  0.57009  0.26868  1.0000
  H   H21       1.0  0.87034  0.56507  0.22952  1.0000
  N   N7        1.0  0.80455  0.56612  0.18176  1.0000
  O   O10       1.0  0.82860  0.59399  0.13154  1.0000
  O   O11       1.0  0.79611  0.53296  0.14735  1.0000
  N   N8        1.0  0.66708  0.59554  0.28294  1.0000
  H   H22       1.0  0.65005  0.58193  0.23167  1.0000
  C   C41       1.0  0.47297  0.17607  0.29578  1.0000
  C   C42       1.0  0.51593  0.24940  0.29645  1.0000
  C   C43       1.0  0.51052  0.21096  0.27979  1.0000
  H   H23       1.0  0.54362  0.27418  0.28588  1.0000
  H   H24       1.0  0.53455  0.20849  0.25867  1.0000
  C   C44       1.0  0.49444  0.35424  0.28247  1.0000
  C   C45       1.0  0.49402  0.31765  0.26847  1.0000
  H   H25       1.0  0.49895  0.37251  0.22907  1.0000
  N   N9        1.0  0.49789  0.30564  0.18158  1.0000
  O   O12       1.0  0.46994  0.30174  0.13150  1.0000
  O   O13       1.0  0.53099  0.33033  0.14693  1.0000
  N   N10       1.0  0.46910  0.13904  0.28399  1.0000
  H   H26       1.0  0.48238  0.13545  0.23228  1.0000
  C   C46       1.0  0.88806  0.36414  0.29522  1.0000
  C   C47       1.0  0.81475  0.33389  0.29661  1.0000
  C   C48       1.0  0.85319  0.36690  0.27975  1.0000
  H   H27       1.0  0.78998  0.33684  0.28631  1.0000
  H   H28       1.0  0.85568  0.39341  0.25869  1.0000
  C   C49       1.0  0.70991  0.20751  0.28271  1.0000
  C   C50       1.0  0.74646  0.24371  0.26864  1.0000
  H   H29       1.0  0.69160  0.19375  0.22936  1.0000
  N   N11       1.0  0.75839  0.25962  0.18173  1.0000
  O   O14       1.0  0.76230  0.23561  0.13155  1.0000
  O   O15       1.0  0.73364  0.26799  0.14725  1.0000
  N   N12       1.0  0.92514  0.39725  0.28317  1.0000
  H   H30       1.0  0.92859  0.41414  0.23160  1.0000
  O   O16       1.0  0.94307  0.62162  0.25932  1.0000
  C   C51       1.0  0.53858  0.56314  0.34008  1.0000
  C   C52       1.0  0.57680  0.56532  0.34082  1.0000
  C   C53       1.0  0.61266  0.60343  0.34240  1.0000
  C   C54       1.0  0.61018  0.63873  0.33998  1.0000
  C   C55       1.0  0.57288  0.63744  0.33629  1.0000
  C   C56       1.0  0.53673  0.59942  0.33825  1.0000
  C   C57       1.0  0.57783  0.52904  0.34044  1.0000
  C   C58       1.0  0.49838  0.59614  0.33634  1.0000
  H   H31       1.0  0.63629  0.66613  0.33983  1.0000
  C   C59       1.0  0.50236  0.52472  0.34011  1.0000
  C   C60       1.0  0.50421  0.48844  0.33805  1.0000
  C   C61       1.0  0.46807  0.45042  0.33622  1.0000
  C   C62       1.0  0.43076  0.44912  0.34014  1.0000
  C   C63       1.0  0.42828  0.48442  0.34277  1.0000
  C   C64       1.0  0.46414  0.52253  0.34116  1.0000
  C   C65       1.0  0.54256  0.49172  0.33586  1.0000
  H   H32       1.0  0.40465  0.42172  0.34005  1.0000
  C   C66       1.0  0.46312  0.55882  0.34104  1.0000
  H   H33       1.0  0.54582  0.46696  0.33203  1.0000
  H   H34       1.0  0.60439  0.52896  0.34185  1.0000
  H   H35       1.0  0.43657  0.55891  0.34269  1.0000
  H   H36       1.0  0.49511  0.62089  0.33267  1.0000
  C   C67       1.0  0.57401  0.67474  0.32452  1.0000
  C   C68       1.0  0.65171  0.60844  0.34827  1.0000
  C   C69       1.0  0.46692  0.41313  0.32430  1.0000
  C   C70       1.0  0.38923  0.47939  0.34887  1.0000
  O   O17       1.0  0.59828  0.69899  0.25900  1.0000
  O   O18       1.0  0.67105  0.62291  0.42656  1.0000
  O   O19       1.0  0.44257  0.38886  0.25889  1.0000
  O   O20       1.0  0.37004  0.46506  0.42736  1.0000
  C   C71       1.0  0.50119  0.04269  0.34003  1.0000
  C   C72       1.0  0.49899  0.07872  0.34106  1.0000
  C   C73       1.0  0.46088  0.07647  0.34262  1.0000
  C   C74       1.0  0.42558  0.03868  0.33995  1.0000
  C   C75       1.0  0.42689  0.00268  0.33599  1.0000
  C   C76       1.0  0.46491  0.00456  0.33795  1.0000
  C   C77       1.0  0.53528  0.11603  0.34095  1.0000
  C   C78       1.0  0.46820  0.96950  0.33580  1.0000
  H   H37       1.0  0.39819  0.03739  0.33981  1.0000
  C   C79       1.0  0.53961  0.04490  0.34003  1.0000
  C   C80       1.0  0.57588  0.08303  0.33818  1.0000
  C   C81       1.0  0.61391  0.08491  0.33621  1.0000
  C   C82       1.0  0.61521  0.04891  0.33993  1.0000
  C   C83       1.0  0.57991  0.01112  0.34240  1.0000
  C   C84       1.0  0.54180  0.00886  0.34082  1.0000
  C   C85       1.0  0.57260  0.11810  0.33626  1.0000
  H   H38       1.0  0.64261  0.05020  0.33979  1.0000
  C   C86       1.0  0.50552  0.97155  0.34047  1.0000
  H   H39       1.0  0.59735  0.14612  0.33262  1.0000
  H   H40       1.0  0.53536  0.14268  0.34262  1.0000
  H   H41       1.0  0.50545  0.94491  0.34191  1.0000
  H   H42       1.0  0.44345  0.94148  0.33200  1.0000
  C   C87       1.0  0.38962  0.96652  0.32405  1.0000
  C   C88       1.0  0.45582  0.11047  0.34871  1.0000
  C   C89       1.0  0.65120  0.12108  0.32445  1.0000
  C   C90       1.0  0.58497  0.97712  0.34828  1.0000
  O   O21       1.0  0.36532  0.96663  0.25877  1.0000
  O   O22       1.0  0.44180  0.11546  0.42749  1.0000
  O   O23       1.0  0.67547  0.12106  0.25897  1.0000
  O   O24       1.0  0.59899  0.97206  0.42701  1.0000
  C   C91       1.0  0.30373  0.46385  0.32495  1.0000
  C   C92       1.0  0.27055  0.46904  0.34086  1.0000
  C   C93       1.0  0.27373  0.50700  0.32803  1.0000
  C   C94       1.0  0.23966  0.51150  0.34221  1.0000
  C   C95       1.0  0.22350  0.50744  0.42905  1.0000
  C   C96       1.0  0.18703  0.50768  0.44034  1.0000
  C   C97       1.0  0.16600  0.51111  0.36713  1.0000
  H   H43       1.0  0.17488  0.50371  0.50263  1.0000
  H   H44       1.0  0.30072  0.43609  0.33456  1.0000
  H   H45       1.0  0.24402  0.44486  0.36145  1.0000
  N   N13       1.0  0.24406  0.50337  0.50309  1.0000
  O   O25       1.0  0.22278  0.47076  0.54341  1.0000
  O   O26       1.0  0.25449  0.53187  0.55714  1.0000
  N   N14       1.0  0.12962  0.50904  0.37972  1.0000
  H   H46       1.0  0.12594  0.52037  0.43464  1.0000
  C   C98       1.0  0.60048  0.90717  0.32443  1.0000
  C   C99       1.0  0.59518  0.86877  0.34064  1.0000
  C   C100      1.0  0.55716  0.83405  0.32809  1.0000
  C   C101      1.0  0.55258  0.79546  0.34247  1.0000
  C   C102      1.0  0.55666  0.78343  0.42936  1.0000
  C   C103      1.0  0.55649  0.74675  0.44078  1.0000
  C   C104      1.0  0.55303  0.72224  0.36767  1.0000
  H   H47       1.0  0.56043  0.73860  0.50312  1.0000
  H   H48       1.0  0.62829  0.93189  0.33383  1.0000
  H   H49       1.0  0.61933  0.86637  0.36124  1.0000
  N   N15       1.0  0.56073  0.80810  0.50329  1.0000
  O   O27       1.0  0.59336  0.81950  0.54359  1.0000
  O   O28       1.0  0.53225  0.79005  0.55740  1.0000
  N   N16       1.0  0.55517  0.68797  0.38037  1.0000
  H   H50       1.0  0.54382  0.67296  0.43529  1.0000
  C   C105      1.0  0.15694  0.76053  0.32501  1.0000
  C   C106      1.0  0.19534  0.79368  0.34090  1.0000
  C   C107      1.0  0.23009  0.79046  0.32800  1.0000
  C   C108      1.0  0.26868  0.82449  0.34224  1.0000
  C   C109      1.0  0.28079  0.84060  0.42911  1.0000
  C   C110      1.0  0.31753  0.87704  0.44046  1.0000
  C   C111      1.0  0.34200  0.89808  0.36729  1.0000
  H   H51       1.0  0.32571  0.88915  0.50278  1.0000
  H   H52       1.0  0.13220  0.76356  0.33471  1.0000
  H   H53       1.0  0.19772  0.82022  0.36158  1.0000
  N   N17       1.0  0.25614  0.82003  0.50311  1.0000
  O   O29       1.0  0.24484  0.84132  0.54351  1.0000
  O   O30       1.0  0.27417  0.80954  0.55712  1.0000
  N   N18       1.0  0.37631  0.93445  0.37994  1.0000
  H   H54       1.0  0.39136  0.93806  0.43479  1.0000
  C   C112      1.0  0.73722  0.62408  0.32389  1.0000
  C   C113      1.0  0.77031  0.61876  0.34015  1.0000
  C   C114      1.0  0.76695  0.58070  0.32788  1.0000
  C   C115      1.0  0.80093  0.57608  0.34236  1.0000
  C   C116      1.0  0.81702  0.58017  0.42928  1.0000
  C   C117      1.0  0.85347  0.57991  0.44080  1.0000
  C   C118      1.0  0.87451  0.57637  0.36775  1.0000
  H   H55       1.0  0.86555  0.58385  0.50315  1.0000
  H   H56       1.0  0.74035  0.65192  0.33310  1.0000
  H   H57       1.0  0.79688  0.64292  0.36058  1.0000
  N   N19       1.0  0.79643  0.58432  0.50313  1.0000
  O   O31       1.0  0.81771  0.61696  0.54337  1.0000
  O   O32       1.0  0.78594  0.55586  0.55732  1.0000
  N   N20       1.0  0.91088  0.57845  0.38053  1.0000
  H   H58       1.0  0.91450  0.56706  0.43544  1.0000
  C   C119      1.0  0.44043  0.18052  0.32519  1.0000
  C   C120      1.0  0.44566  0.21891  0.34110  1.0000
  C   C121      1.0  0.48360  0.25367  0.32802  1.0000
  C   C122      1.0  0.48814  0.29225  0.34228  1.0000
  C   C123      1.0  0.48416  0.30436  0.42917  1.0000
  C   C124      1.0  0.48443  0.34109  0.44054  1.0000
  C   C125      1.0  0.48782  0.36555  0.36738  1.0000
  H   H59       1.0  0.48052  0.34927  0.50287  1.0000
  H   H60       1.0  0.41268  0.15577  0.33500  1.0000
  H   H61       1.0  0.42151  0.22127  0.36190  1.0000
  N   N21       1.0  0.48013  0.27973  0.50317  1.0000
  O   O33       1.0  0.44755  0.26841  0.54362  1.0000
  O   O34       1.0  0.50867  0.29778  0.55713  1.0000
  N   N22       1.0  0.48577  0.39986  0.38006  1.0000
  H   H62       1.0  0.49718  0.41489  0.43493  1.0000
  C   C126      1.0  0.88361  0.32713  0.32443  1.0000
  C   C127      1.0  0.84522  0.29401  0.34062  1.0000
  C   C128      1.0  0.81048  0.29727  0.32798  1.0000
  C   C129      1.0  0.77190  0.26325  0.34237  1.0000
  C   C130      1.0  0.75988  0.24713  0.42927  1.0000
  C   C131      1.0  0.72321  0.21062  0.44070  1.0000
  C   C132      1.0  0.69870  0.18956  0.36761  1.0000
  H   H63       1.0  0.71507  0.19853  0.50305  1.0000
  H   H64       1.0  0.90834  0.32406  0.33390  1.0000
  H   H65       1.0  0.84285  0.26747  0.36126  1.0000
  N   N23       1.0  0.78456  0.26774  0.50319  1.0000
  O   O35       1.0  0.79597  0.24651  0.54349  1.0000
  O   O36       1.0  0.76651  0.27816  0.55731  1.0000
  N   N24       1.0  0.66444  0.15315  0.38031  1.0000
  H   H66       1.0  0.64942  0.14948  0.43523  1.0000
