data_image0
_chemical_formula_structural       C3HCHCHCOH4C3H2C3H3NCH2C2NC2H3CH3CH3C2NC2H3CH3CH3CNCHOHCNCHOHCNCHOHCNCHOHCNCHOHCNCHOHCHC6H3C6H3C6H3C6H3C6H3NCHCNCOHCNCOHC2NC2H2CH3CH3C2NC2H2CH3CH3C2NC2H2CH3C2NC2H2CH3CH3C2NC2H2CH3CH3C2NC2H2CH3CH3
_chemical_formula_sum              "C108 H108 O9 N18"
_cell_length_a       30.5527
_cell_length_b       30.5528
_cell_length_c       14.8139
_cell_angle_alpha    90
_cell_angle_beta     90
_cell_angle_gamma    120

_space_group_name_H-M_alt    "P 1"
_space_group_IT_number       1

loop_
  _space_group_symop_operation_xyz
  'x, y, z'

loop_
  _atom_site_type_symbol
  _atom_site_label
  _atom_site_symmetry_multiplicity
  _atom_site_fract_x
  _atom_site_fract_y
  _atom_site_fract_z
  _atom_site_occupancy
  C   C1        1.0  0.03279  0.51852  0.25023  1.0000
  C   C2        1.0  0.06304  0.53263  0.33071  1.0000
  C   C3        1.0  0.05176  0.52880  0.15297  1.0000
  H   H1        1.0  0.02085  0.51504  0.01320  1.0000
  C   C4        1.0  0.08324  0.50250  0.13092  1.0000
  H   H2        1.0  0.06278  0.46284  0.15142  1.0000
  C   C5        1.0  0.08434  0.58689  0.13435  1.0000
  H   H3        1.0  0.06449  0.60639  0.15674  1.0000
  C   C6        1.0  0.03628  0.51848  0.41404  1.0000
  O   O1        1.0  0.06159  0.53032  0.49365  1.0000
  H   H4        1.0  0.11970  0.52092  0.16468  1.0000
  H   H5        1.0  0.09113  0.50396  0.05868  1.0000
  H   H6        1.0  0.09258  0.59456  0.06242  1.0000
  H   H7        1.0  0.12063  0.60361  0.16856  1.0000
  C   C7        1.0  0.14497  0.61336  0.34413  1.0000
  C   C8        1.0  0.11760  0.55985  0.33404  1.0000
  C   C9        1.0  0.14516  0.53367  0.33870  1.0000
  H   H8        1.0  0.12581  0.63289  0.34349  1.0000
  H   H9        1.0  0.12616  0.49503  0.33519  1.0000
  C   C10       1.0  0.19856  0.55989  0.34656  1.0000
  C   C11       1.0  0.19820  0.64051  0.35578  1.0000
  C   C12       1.0  0.18499  0.69415  0.55253  1.0000
  H   H10       1.0  0.18399  0.72852  0.53623  1.0000
  H   H11       1.0  0.17329  0.68437  0.62284  1.0000
  H   H12       1.0  0.15690  0.66361  0.51095  1.0000
  N   N1        1.0  0.98131  0.49298  0.26155  1.0000
  C   C13       1.0  0.00701  0.50752  0.08275  1.0000
  H   H13       1.0  0.98292  0.46661  0.08988  1.0000
  H   H14       1.0  0.98358  0.52487  0.09243  1.0000
  C   C14       1.0  0.49723  0.51750  0.25038  1.0000
  C   C15       1.0  0.48308  0.53360  0.33088  1.0000
  N   N2        1.0  0.52280  0.49160  0.26170  1.0000
  C   C16       1.0  0.48699  0.52622  0.15313  1.0000
  C   C17       1.0  0.50830  0.50278  0.08291  1.0000
  H   H15       1.0  0.54919  0.51960  0.09009  1.0000
  H   H16       1.0  0.50080  0.50912  0.01335  1.0000
  H   H17       1.0  0.49094  0.46199  0.09254  1.0000
  C   C18       1.0  0.51329  0.58401  0.13112  1.0000
  H   H18       1.0  0.55295  0.60320  0.15164  1.0000
  H   H19       1.0  0.49486  0.60204  0.16490  1.0000
  H   H20       1.0  0.51184  0.59046  0.05888  1.0000
  C   C19       1.0  0.42890  0.50071  0.13443  1.0000
  H   H21       1.0  0.40939  0.46137  0.15684  1.0000
  H   H22       1.0  0.42125  0.50126  0.06248  1.0000
  H   H23       1.0  0.41217  0.52030  0.16856  1.0000
  C   C20       1.0  0.49830  0.98282  0.25041  1.0000
  C   C21       1.0  0.48210  0.95257  0.33089  1.0000
  N   N3        1.0  0.52425  0.03431  0.26173  1.0000
  C   C22       1.0  0.48962  0.96386  0.15315  1.0000
  C   C23       1.0  0.51314  0.00862  0.08294  1.0000
  H   H24       1.0  0.49634  0.03272  0.09004  1.0000
  H   H25       1.0  0.50683  0.99479  0.01339  1.0000
  H   H26       1.0  0.55392  0.03202  0.09264  1.0000
  C   C24       1.0  0.43184  0.93242  0.13103  1.0000
  H   H27       1.0  0.41266  0.95291  0.15153  1.0000
  H   H28       1.0  0.41378  0.89596  0.16478  1.0000
  H   H29       1.0  0.42543  0.92454  0.05879  1.0000
  C   C25       1.0  0.51510  0.93125  0.13456  1.0000
  H   H30       1.0  0.55443  0.95106  0.15700  1.0000
  H   H31       1.0  0.51455  0.92302  0.06261  1.0000
  H   H32       1.0  0.49548  0.89495  0.16871  1.0000
  C   C26       1.0  0.29647  0.53319  0.27647  1.0000
  N   N4        1.0  0.25181  0.53321  0.27356  1.0000
  C   C27       1.0  0.22847  0.53650  0.34959  1.0000
  H   H33       1.0  0.28449  0.53331  0.00982  1.0000
  O   O2        1.0  0.31942  0.53576  0.19664  1.0000
  H   H34       1.0  0.23858  0.53526  0.21472  1.0000
  C   C28       1.0  0.48199  0.76622  0.27665  1.0000
  N   N5        1.0  0.48205  0.72158  0.27348  1.0000
  C   C29       1.0  0.47906  0.69509  0.34955  1.0000
  H   H35       1.0  0.48272  0.75435  0.01001  1.0000
  O   O3        1.0  0.47914  0.78647  0.19684  1.0000
  H   H36       1.0  0.47962  0.70617  0.21462  1.0000
  C   C30       1.0  0.24919  0.71884  0.27651  1.0000
  N   N6        1.0  0.29385  0.76353  0.27323  1.0000
  C   C31       1.0  0.32054  0.78713  0.34905  1.0000
  H   H37       1.0  0.26172  0.73171  0.00980  1.0000
  O   O4        1.0  0.22884  0.69569  0.19679  1.0000
  H   H38       1.0  0.30919  0.77648  0.21432  1.0000
  C   C32       1.0  0.72154  0.47725  0.26963  1.0000
  N   N7        1.0  0.76618  0.47726  0.26610  1.0000
  C   C33       1.0  0.79097  0.47646  0.34196  1.0000
  H   H39       1.0  0.73620  0.47919  0.00340  1.0000
  O   O5        1.0  0.69761  0.47317  0.19025  1.0000
  H   H40       1.0  0.77860  0.47391  0.20729  1.0000
  C   C34       1.0  0.53889  0.24765  0.27017  1.0000
  N   N8        1.0  0.53897  0.29232  0.26661  1.0000
  C   C35       1.0  0.53957  0.31788  0.34246  1.0000
  H   H41       1.0  0.53617  0.25994  0.00371  1.0000
  O   O6        1.0  0.54313  0.22796  0.19072  1.0000
  H   H42       1.0  0.54243  0.30814  0.20779  1.0000
  C   C36       1.0  0.76812  0.29424  0.26959  1.0000
  N   N9        1.0  0.72349  0.24960  0.26606  1.0000
  C   C37       1.0  0.69796  0.22476  0.34190  1.0000
  H   H43       1.0  0.75546  0.27951  0.00329  1.0000
  O   O7        1.0  0.78787  0.31819  0.19019  1.0000
  H   H44       1.0  0.70773  0.23712  0.20725  1.0000
  C   C38       1.0  0.22414  0.61308  0.35305  1.0000
  H   H45       1.0  0.26289  0.63246  0.35771  1.0000
  C   C39       1.0  0.45571  0.64180  0.34633  1.0000
  C   C40       1.0  0.40251  0.61416  0.35260  1.0000
  C   C41       1.0  0.37512  0.56079  0.35553  1.0000
  C   C42       1.0  0.40230  0.53472  0.34408  1.0000
  C   C43       1.0  0.45582  0.56090  0.33419  1.0000
  C   C44       1.0  0.48197  0.61464  0.33890  1.0000
  H   H46       1.0  0.38279  0.49603  0.34346  1.0000
  H   H47       1.0  0.52062  0.63431  0.33556  1.0000
  H   H48       1.0  0.38310  0.63350  0.35712  1.0000
  C   C45       1.0  0.37383  0.81702  0.34635  1.0000
  C   C46       1.0  0.40146  0.79144  0.35267  1.0000
  C   C47       1.0  0.45483  0.81741  0.35560  1.0000
  C   C48       1.0  0.48091  0.87066  0.34426  1.0000
  C   C49       1.0  0.45476  0.89802  0.33421  1.0000
  C   C50       1.0  0.40101  0.87043  0.33875  1.0000
  H   H49       1.0  0.51960  0.88984  0.34377  1.0000
  H   H50       1.0  0.38136  0.88942  0.33523  1.0000
  H   H51       1.0  0.38211  0.75269  0.35727  1.0000
  C   C51       1.0  0.82069  0.45282  0.34076  1.0000
  C   C52       1.0  0.79472  0.39952  0.34477  1.0000
  C   C53       1.0  0.82030  0.37179  0.35081  1.0000
  C   C54       1.0  0.87389  0.39890  0.34566  1.0000
  C   C55       1.0  0.90167  0.45261  0.34184  1.0000
  C   C56       1.0  0.87429  0.47898  0.33984  1.0000
  H   H52       1.0  0.89293  0.37925  0.34666  1.0000
  H   H53       1.0  0.89354  0.51766  0.33801  1.0000
  H   H54       1.0  0.75589  0.38028  0.34594  1.0000
  C   C57       1.0  0.56309  0.37122  0.34063  1.0000
  C   C58       1.0  0.61638  0.39858  0.34469  1.0000
  C   C59       1.0  0.64406  0.45189  0.35080  1.0000
  C   C60       1.0  0.61690  0.47832  0.34564  1.0000
  C   C61       1.0  0.56320  0.45234  0.34195  1.0000
  C   C62       1.0  0.53687  0.39860  0.34006  1.0000
  H   H55       1.0  0.63652  0.51701  0.34664  1.0000
  H   H56       1.0  0.49819  0.37913  0.33843  1.0000
  H   H57       1.0  0.63566  0.37903  0.34594  1.0000
  C   C63       1.0  0.64460  0.19497  0.34076  1.0000
  C   C64       1.0  0.61723  0.22090  0.34497  1.0000
  C   C65       1.0  0.56391  0.19525  0.35102  1.0000
  C   C66       1.0  0.53748  0.14166  0.34601  1.0000
  C   C67       1.0  0.56347  0.11395  0.34201  1.0000
  C   C68       1.0  0.61721  0.14138  0.33984  1.0000
  H   H58       1.0  0.49880  0.12259  0.34711  1.0000
  H   H59       1.0  0.63667  0.12216  0.33789  1.0000
  H   H60       1.0  0.63678  0.25973  0.34620  1.0000
  N   N10       1.0  0.98463  0.49274  0.41730  1.0000
  C   C69       1.0  0.95592  0.47950  0.34106  1.0000
  H   H61       1.0  0.96794  0.48383  0.47597  1.0000
  C   C70       1.0  0.49721  0.52096  0.41421  1.0000
  N   N11       1.0  0.52297  0.49508  0.41745  1.0000
  C   C71       1.0  0.53626  0.47967  0.34121  1.0000
  O   O8        1.0  0.48532  0.53439  0.49381  1.0000
  H   H62       1.0  0.53187  0.48728  0.47612  1.0000
  C   C72       1.0  0.49468  0.97933  0.41422  1.0000
  N   N12       1.0  0.52060  0.03098  0.41747  1.0000
  C   C73       1.0  0.53614  0.05969  0.34124  1.0000
  O   O9        1.0  0.48115  0.95402  0.49381  1.0000
  H   H63       1.0  0.52836  0.04768  0.47614  1.0000
  C   C74       1.0  0.29675  0.53969  0.43972  1.0000
  C   C75       1.0  0.32162  0.53715  0.35949  1.0000
  N   N13       1.0  0.25307  0.54094  0.42826  1.0000
  C   C76       1.0  0.31388  0.54028  0.53669  1.0000
  C   C77       1.0  0.27293  0.53495  0.60728  1.0000
  H   H64       1.0  0.26665  0.56709  0.60304  1.0000
  H   H65       1.0  0.23690  0.50049  0.59535  1.0000
  C   C78       1.0  0.36364  0.59033  0.56075  1.0000
  H   H66       1.0  0.36122  0.62318  0.53868  1.0000
  H   H67       1.0  0.39669  0.59182  0.52989  1.0000
  H   H68       1.0  0.37061  0.59371  0.63347  1.0000
  C   C79       1.0  0.32175  0.49400  0.55229  1.0000
  H   H69       1.0  0.28732  0.45864  0.53612  1.0000
  H   H70       1.0  0.33160  0.49208  0.62256  1.0000
  H   H71       1.0  0.35220  0.49636  0.51059  1.0000
  C   C80       1.0  0.47617  0.76018  0.43994  1.0000
  C   C81       1.0  0.47853  0.78762  0.35990  1.0000
  N   N14       1.0  0.47489  0.71523  0.42841  1.0000
  C   C82       1.0  0.47565  0.77673  0.53690  1.0000
  C   C83       1.0  0.48104  0.74114  0.60747  1.0000
  H   H72       1.0  0.44891  0.70271  0.60329  1.0000
  H   H73       1.0  0.51551  0.73958  0.59546  1.0000
  C   C84       1.0  0.42560  0.77641  0.56102  1.0000
  H   H74       1.0  0.39275  0.74111  0.53908  1.0000
  H   H75       1.0  0.42405  0.80792  0.53007  1.0000
  H   H76       1.0  0.42227  0.78007  0.63374  1.0000
  C   C85       1.0  0.52192  0.83090  0.55242  1.0000
  H   H77       1.0  0.55728  0.83185  0.53618  1.0000
  H   H78       1.0  0.52387  0.84270  0.62267  1.0000
  H   H79       1.0  0.51951  0.85896  0.51070  1.0000
  C   C86       1.0  0.25558  0.71905  0.43980  1.0000
  C   C87       1.0  0.22806  0.69402  0.35982  1.0000
  N   N15       1.0  0.30050  0.76273  0.42797  1.0000
  C   C88       1.0  0.23916  0.70208  0.53684  1.0000
  C   C89       1.0  0.27483  0.74316  0.60719  1.0000
  H   H80       1.0  0.31326  0.74949  0.60287  1.0000
  H   H81       1.0  0.27634  0.77915  0.59509  1.0000
  C   C90       1.0  0.23955  0.65239  0.56108  1.0000
  H   H82       1.0  0.27483  0.65483  0.53902  1.0000
  H   H83       1.0  0.20801  0.61928  0.53033  1.0000
  H   H84       1.0  0.23601  0.64550  0.63384  1.0000
  C   C91       1.0  0.72340  0.47401  0.43324  1.0000
  C   C92       1.0  0.69759  0.47516  0.35318  1.0000
  N   N16       1.0  0.76733  0.47322  0.42125  1.0000
  C   C93       1.0  0.70666  0.47318  0.53058  1.0000
  C   C94       1.0  0.74762  0.47789  0.60059  1.0000
  H   H85       1.0  0.75371  0.44566  0.59534  1.0000
  H   H86       1.0  0.78373  0.51232  0.58899  1.0000
  C   C95       1.0  0.65681  0.42313  0.55434  1.0000
  H   H87       1.0  0.65903  0.39029  0.53152  1.0000
  H   H88       1.0  0.62377  0.42187  0.52396  1.0000
  H   H89       1.0  0.64994  0.41945  0.62711  1.0000
  C   C96       1.0  0.69927  0.51964  0.54745  1.0000
  H   H90       1.0  0.73377  0.55492  0.53123  1.0000
  H   H91       1.0  0.68977  0.52140  0.61802  1.0000
  H   H92       1.0  0.66876  0.51766  0.50656  1.0000
  C   C97       1.0  0.54159  0.25246  0.43355  1.0000
  C   C98       1.0  0.54058  0.22543  0.35366  1.0000
  N   N17       1.0  0.54248  0.29723  0.42163  1.0000
  C   C99       1.0  0.54229  0.23648  0.53087  1.0000
  C   C100      1.0  0.53755  0.27271  0.60091  1.0000
  H   H93       1.0  0.56981  0.31102  0.59579  1.0000
  H   H94       1.0  0.50316  0.27444  0.58921  1.0000
  C   C101      1.0  0.59230  0.23664  0.55476  1.0000
  H   H95       1.0  0.62517  0.27171  0.53209  1.0000
  H   H96       1.0  0.59357  0.20488  0.52429  1.0000
  H   H97       1.0  0.59589  0.23336  0.62753  1.0000
  C   C102      1.0  0.49579  0.18264  0.54759  1.0000
  H   H98       1.0  0.46054  0.18191  0.53128  1.0000
  H   H99       1.0  0.49395  0.17132  0.61814  1.0000
  H   H100      1.0  0.49778  0.15413  0.50665  1.0000
  C   C103      1.0  0.76306  0.29237  0.43312  1.0000
  C   C104      1.0  0.79003  0.31828  0.35307  1.0000
  N   N18       1.0  0.71837  0.24840  0.42117  1.0000
  C   C105      1.0  0.77898  0.30908  0.53047  1.0000
  C   C106      1.0  0.74274  0.26810  0.60047  1.0000
  H   H101      1.0  0.70442  0.26201  0.59524  1.0000
  H   H102      1.0  0.74106  0.23199  0.58883  1.0000
  C   C107      1.0  0.77877  0.35891  0.55432  1.0000
  H   H103      1.0  0.74372  0.35671  0.53151  1.0000
  H   H104      1.0  0.81057  0.39197  0.52399  1.0000
  H   H105      1.0  0.78196  0.36575  0.62710  1.0000
  C   C108      1.0  0.83283  0.31645  0.54731  1.0000
  H   H106      1.0  0.83360  0.28196  0.53102  1.0000
  H   H107      1.0  0.84409  0.32592  0.61789  1.0000
  H   H108      1.0  0.86136  0.34698  0.50645  1.0000
