data_image0
_chemical_formula_structural       C2H8C2H8CNC2HNHNHCNC2HNHNHCNC2HNHNHC28H16CHCHCHC28H16CHCHCHC4HC5H3NHC4HC5H3NHC4HC5H3NH
_chemical_formula_sum              "C102 H78 N12"
_cell_length_a       52.0512
_cell_length_b       52.0464
_cell_length_c       14.9855
_cell_angle_alpha    90
_cell_angle_beta     90
_cell_angle_gamma    120.001

_space_group_name_H-M_alt    "P 1"
_space_group_IT_number       1

loop_
  _space_group_symop_operation_xyz
  'x, y, z'

loop_
  _atom_site_type_symbol
  _atom_site_label
  _atom_site_symmetry_multiplicity
  _atom_site_fract_x
  _atom_site_fract_y
  _atom_site_fract_z
  _atom_site_occupancy
  C   C1        1.0  0.38051  0.79833  0.34903  1.0000
  C   C2        1.0  0.39914  0.82925  0.34193  1.0000
  H   H1        1.0  0.38975  0.84236  0.34710  1.0000
  H   H2        1.0  0.35823  0.79003  0.35832  1.0000
  H   H3        1.0  0.45355  0.61143  0.34714  1.0000
  H   H4        1.0  0.15884  0.54763  0.34711  1.0000
  H   H5        1.0  0.21116  0.56843  0.35828  1.0000
  H   H6        1.0  0.12248  0.58509  0.25923  1.0000
  H   H7        1.0  0.41612  0.53762  0.25917  1.0000
  H   H8        1.0  0.46356  0.87872  0.25920  1.0000
  C   C3        1.0  0.62284  0.20316  0.30289  1.0000
  C   C4        1.0  0.60329  0.17232  0.29872  1.0000
  H   H9        1.0  0.61018  0.15925  0.26808  1.0000
  H   H10       1.0  0.64351  0.21181  0.27511  1.0000
  H   H11       1.0  0.55003  0.39102  0.26813  1.0000
  H   H12       1.0  0.84199  0.45117  0.26803  1.0000
  H   H13       1.0  0.78943  0.43195  0.27502  1.0000
  H   H14       1.0  0.88061  0.42920  0.26220  1.0000
  H   H15       1.0  0.57197  0.45161  0.26214  1.0000
  H   H16       1.0  0.54960  0.12062  0.26216  1.0000
  C   C5        1.0  0.51479  0.45214  0.29610  1.0000
  N   N1        1.0  0.50296  0.47016  0.29211  1.0000
  C   C6        1.0  0.46610  0.52465  0.26410  1.0000
  C   C7        1.0  0.46856  0.54463  0.33180  1.0000
  H   H17       1.0  0.51195  0.43855  0.24330  1.0000
  N   N2        1.0  0.47825  0.50713  0.27569  1.0000
  H   H18       1.0  0.45559  0.52351  0.20543  1.0000
  N   N3        1.0  0.45739  0.56429  0.32254  1.0000
  H   H19       1.0  0.46630  0.57680  0.26595  1.0000
  C   C8        1.0  0.54907  0.06288  0.29608  1.0000
  N   N4        1.0  0.53104  0.03303  0.29210  1.0000
  C   C9        1.0  0.47654  0.94168  0.26409  1.0000
  C   C10       1.0  0.45656  0.92417  0.33179  1.0000
  H   H20       1.0  0.56267  0.07364  0.24330  1.0000
  N   N5        1.0  0.49407  0.97136  0.27568  1.0000
  H   H21       1.0  0.47769  0.93232  0.20543  1.0000
  N   N6        1.0  0.43690  0.89334  0.32253  1.0000
  H   H22       1.0  0.42440  0.88974  0.26593  1.0000
  C   C11       1.0  0.93834  0.48644  0.29608  1.0000
  N   N7        1.0  0.96819  0.49827  0.29210  1.0000
  C   C12       1.0  0.05953  0.53512  0.26412  1.0000
  C   C13       1.0  0.07704  0.53264  0.33181  1.0000
  H   H23       1.0  0.92759  0.48929  0.24330  1.0000
  N   N8        1.0  0.02985  0.52296  0.27570  1.0000
  H   H24       1.0  0.06890  0.54563  0.20546  1.0000
  N   N9        1.0  0.10787  0.54380  0.32255  1.0000
  H   H25       1.0  0.11146  0.53490  0.26595  1.0000
  C   C14       1.0  0.43007  0.84189  0.32859  1.0000
  C   C15       1.0  0.44171  0.82251  0.32390  1.0000
  C   C16       1.0  0.42313  0.79158  0.33099  1.0000
  C   C17       1.0  0.39218  0.77903  0.34270  1.0000
  C   C18       1.0  0.37332  0.74859  0.35035  1.0000
  C   C19       1.0  0.37312  0.72866  0.29277  1.0000
  C   C20       1.0  0.35369  0.69833  0.29882  1.0000
  C   C21       1.0  0.32261  0.68655  0.29814  1.0000
  C   C22       1.0  0.30286  0.65558  0.29870  1.0000
  C   C23       1.0  0.31464  0.63628  0.29808  1.0000
  C   C24       1.0  0.34560  0.64750  0.29870  1.0000
  C   C25       1.0  0.36490  0.67858  0.29817  1.0000
  C   C26       1.0  0.35650  0.62807  0.29265  1.0000
  C   C27       1.0  0.37623  0.62787  0.35025  1.0000
  C   C28       1.0  0.38781  0.60901  0.34260  1.0000
  C   C29       1.0  0.41878  0.62068  0.34898  1.0000
  C   C30       1.0  0.36941  0.57805  0.33087  1.0000
  C   C31       1.0  0.38175  0.55947  0.32379  1.0000
  C   C32       1.0  0.41277  0.57112  0.32854  1.0000
  C   C33       1.0  0.43106  0.60205  0.34190  1.0000
  C   C34       1.0  0.27253  0.64468  0.29265  1.0000
  C   C35       1.0  0.25261  0.62495  0.35023  1.0000
  C   C36       1.0  0.22217  0.61338  0.34259  1.0000
  C   C37       1.0  0.20962  0.63178  0.33090  1.0000
  C   C38       1.0  0.20287  0.58240  0.34895  1.0000
  C   C39       1.0  0.17195  0.57012  0.34189  1.0000
  C   C40       1.0  0.15932  0.58842  0.32855  1.0000
  C   C41       1.0  0.17870  0.61945  0.32384  1.0000
  H   H26       1.0  0.46401  0.83085  0.31530  1.0000
  H   H27       1.0  0.43246  0.77834  0.32789  1.0000
  H   H28       1.0  0.38739  0.68691  0.29566  1.0000
  H   H29       1.0  0.31428  0.70071  0.29567  1.0000
  H   H30       1.0  0.30049  0.61379  0.29556  1.0000
  H   H31       1.0  0.22287  0.65436  0.32778  1.0000
  H   H32       1.0  0.43275  0.64296  0.35832  1.0000
  H   H33       1.0  0.36780  0.53718  0.31519  1.0000
  H   H34       1.0  0.34683  0.56872  0.32773  1.0000
  H   H35       1.0  0.17036  0.63340  0.31525  1.0000
  H   H36       1.0  0.38394  0.64270  0.39950  1.0000
  H   H37       1.0  0.34895  0.61348  0.24278  1.0000
  H   H38       1.0  0.35847  0.74147  0.39956  1.0000
  H   H39       1.0  0.38772  0.73569  0.24292  1.0000
  H   H40       1.0  0.25973  0.61723  0.39946  1.0000
  H   H41       1.0  0.26551  0.65225  0.24280  1.0000
  C   C42       1.0  0.12673  0.57668  0.32115  1.0000
  H   H42       1.0  0.12034  0.58584  0.37705  1.0000
  C   C43       1.0  0.42452  0.55027  0.32111  1.0000
  H   H43       1.0  0.41535  0.53471  0.37698  1.0000
  C   C44       1.0  0.45092  0.87448  0.32113  1.0000
  H   H44       1.0  0.46647  0.88088  0.37701  1.0000
  C   C45       1.0  0.57464  0.15943  0.33695  1.0000
  C   C46       1.0  0.56594  0.17829  0.37851  1.0000
  C   C47       1.0  0.58532  0.20915  0.38197  1.0000
  C   C48       1.0  0.61394  0.22188  0.34400  1.0000
  C   C49       1.0  0.63330  0.25213  0.34868  1.0000
  C   C50       1.0  0.62992  0.27179  0.29914  1.0000
  C   C51       1.0  0.64870  0.30240  0.30283  1.0000
  C   C52       1.0  0.67996  0.31542  0.30218  1.0000
  C   C53       1.0  0.69884  0.34656  0.30285  1.0000
  C   C54       1.0  0.68582  0.36480  0.30217  1.0000
  C   C55       1.0  0.65468  0.35254  0.30283  1.0000
  C   C56       1.0  0.63645  0.32129  0.30216  1.0000
  C   C57       1.0  0.64286  0.37134  0.29915  1.0000
  C   C58       1.0  0.61982  0.36795  0.34870  1.0000
  C   C59       1.0  0.60892  0.38730  0.34400  1.0000
  C   C60       1.0  0.58129  0.37838  0.30293  1.0000
  C   C61       1.0  0.62482  0.41593  0.38194  1.0000
  C   C62       1.0  0.61333  0.43530  0.37847  1.0000
  C   C63       1.0  0.58576  0.42658  0.33694  1.0000
  C   C64       1.0  0.57001  0.39793  0.29874  1.0000
  C   C65       1.0  0.72945  0.35839  0.29910  1.0000
  C   C66       1.0  0.74911  0.38143  0.34865  1.0000
  C   C67       1.0  0.77936  0.39232  0.34396  1.0000
  C   C68       1.0  0.79208  0.37642  0.38198  1.0000
  C   C69       1.0  0.79808  0.41993  0.30283  1.0000
  C   C70       1.0  0.82891  0.43120  0.29866  1.0000
  C   C71       1.0  0.84180  0.41545  0.33695  1.0000
  C   C72       1.0  0.82294  0.38789  0.37853  1.0000
  H   H45       1.0  0.54536  0.16970  0.40662  1.0000
  H   H46       1.0  0.57841  0.22221  0.41275  1.0000
  H   H47       1.0  0.61385  0.31212  0.30009  1.0000
  H   H48       1.0  0.68913  0.30199  0.30007  1.0000
  H   H49       1.0  0.69925  0.38740  0.30007  1.0000
  H   H50       1.0  0.77902  0.35645  0.41278  1.0000
  H   H51       1.0  0.56928  0.35771  0.27517  1.0000
  H   H52       1.0  0.62532  0.45589  0.40656  1.0000
  H   H53       1.0  0.64479  0.42286  0.41269  1.0000
  H   H54       1.0  0.83153  0.37590  0.40670  1.0000
  H   H55       1.0  0.60977  0.35088  0.39041  1.0000
  H   H56       1.0  0.65273  0.38880  0.25857  1.0000
  H   H57       1.0  0.65036  0.25914  0.39043  1.0000
  H   H58       1.0  0.61245  0.26420  0.25855  1.0000
  H   H59       1.0  0.74211  0.39149  0.39039  1.0000
  H   H60       1.0  0.73704  0.34850  0.25855  1.0000
  C   C73       1.0  0.87446  0.42770  0.33257  1.0000
  H   H61       1.0  0.88065  0.41272  0.36506  1.0000
  C   C74       1.0  0.57350  0.44699  0.33252  1.0000
  H   H62       1.0  0.58849  0.46818  0.36492  1.0000
  C   C75       1.0  0.55423  0.12677  0.33254  1.0000
  H   H63       1.0  0.53305  0.12057  0.36498  1.0000
  C   C76       1.0  0.53114  0.45256  0.37157  1.0000
  C   C77       1.0  0.50563  0.48903  0.35896  1.0000
  C   C78       1.0  0.52151  0.49015  0.43744  1.0000
  C   C79       1.0  0.53428  0.47180  0.44258  1.0000
  H   H64       1.0  0.54601  0.47239  0.49810  1.0000
  C   C80       1.0  0.49306  0.50749  0.35092  1.0000
  C   C81       1.0  0.48376  0.54564  0.41072  1.0000
  C   C82       1.0  0.49615  0.52710  0.42152  1.0000
  C   C83       1.0  0.51163  0.52779  0.49965  1.0000
  C   C84       1.0  0.52424  0.50949  0.50750  1.0000
  H   H65       1.0  0.51406  0.54178  0.55108  1.0000
  H   H66       1.0  0.53556  0.51053  0.56450  1.0000
  H   H67       1.0  0.48592  0.56014  0.46025  1.0000
  N   N10       1.0  0.54361  0.43379  0.37408  1.0000
  H   H68       1.0  0.54432  0.42751  0.43867  1.0000
  C   C85       1.0  0.54865  0.07883  0.37155  1.0000
  C   C86       1.0  0.51217  0.01685  0.35894  1.0000
  C   C87       1.0  0.51105  0.03161  0.43741  1.0000
  C   C88       1.0  0.52941  0.06273  0.44255  1.0000
  H   H69       1.0  0.52882  0.07387  0.49806  1.0000
  C   C89       1.0  0.49370  0.98581  0.35090  1.0000
  C   C90       1.0  0.45555  0.93837  0.41070  1.0000
  C   C91       1.0  0.47409  0.96930  0.42150  1.0000
  C   C92       1.0  0.47340  0.98409  0.49962  1.0000
  C   C93       1.0  0.49170  0.01500  0.50746  1.0000
  H   H70       1.0  0.45941  0.97254  0.55104  1.0000
  H   H71       1.0  0.49067  0.02529  0.56445  1.0000
  H   H72       1.0  0.44105  0.92603  0.46022  1.0000
  N   N11       1.0  0.56743  0.11006  0.37405  1.0000
  H   H73       1.0  0.57372  0.11705  0.43864  1.0000
  C   C94       1.0  0.92239  0.47007  0.37153  1.0000
  C   C95       1.0  0.98437  0.49557  0.35894  1.0000
  C   C96       1.0  0.96961  0.47968  0.43740  1.0000
  C   C97       1.0  0.93849  0.46692  0.44252  1.0000
  H   H74       1.0  0.92734  0.45517  0.49803  1.0000
  C   C98       1.0  0.01541  0.50814  0.35091  1.0000
  C   C99       1.0  0.06283  0.51742  0.41071  1.0000
  C   C100      1.0  0.03191  0.50503  0.42150  1.0000
  C   C101      1.0  0.01712  0.48954  0.49961  1.0000
  C   C102      1.0  0.98621  0.47693  0.50744  1.0000
  H   H75       1.0  0.02867  0.48710  0.55102  1.0000
  H   H76       1.0  0.97592  0.46561  0.56443  1.0000
  H   H77       1.0  0.07518  0.51526  0.46023  1.0000
  N   N12       1.0  0.89116  0.45761  0.37402  1.0000
  H   H78       1.0  0.88418  0.45693  0.43860  1.0000
