data_image0
_chemical_formula_structural       C2HC2H2C4NC3HNC8HC7HCH4N3C8HC7HCH4N4C3H2CHC3H2CHC3H2C3H2CHC3H2CHC3H2CHC6H3N3C4H3CH3CHC4H3CH3CHC4H3CH3CHC4H3CH3CHC4H3CH3CHC4H3CH3CH
_chemical_formula_sum              "C108 H78 N12"
_cell_length_a       30.6299
_cell_length_b       30.6298
_cell_length_c       14.8384
_cell_angle_alpha    90.0004
_cell_angle_beta     89.9996
_cell_angle_gamma    120

_space_group_name_H-M_alt    "P 1"
_space_group_IT_number       1

loop_
  _space_group_symop_operation_xyz
  'x, y, z'

loop_
  _atom_site_type_symbol
  _atom_site_label
  _atom_site_symmetry_multiplicity
  _atom_site_fract_x
  _atom_site_fract_y
  _atom_site_fract_z
  _atom_site_occupancy
  C   C1        1.0  0.05002  0.55491  0.34964  1.0000
  C   C2        1.0  0.04871  0.46179  0.34577  1.0000
  H   H1        1.0  0.04795  0.42800  0.34877  1.0000
  C   C3        1.0  0.05002  0.60190  0.34963  1.0000
  C   C4        1.0  0.05132  0.69502  0.34577  1.0000
  H   H2        1.0  0.05209  0.72882  0.34880  1.0000
  H   H3        1.0  0.13588  0.80046  0.33118  1.0000
  C   C5        1.0  0.09572  0.50690  0.34999  1.0000
  C   C6        1.0  0.09620  0.55388  0.34856  1.0000
  C   C7        1.0  0.09749  0.69519  0.34707  1.0000
  C   C8        1.0  0.09659  0.64835  0.34747  1.0000
  N   N1        1.0  0.13610  0.49958  0.35848  1.0000
  C   C9        1.0  0.16026  0.78894  0.35288  1.0000
  C   C10       1.0  0.14105  0.60059  0.33730  1.0000
  C   C11       1.0  0.14152  0.64646  0.33907  1.0000
  H   H4        1.0  0.17423  0.60239  0.32133  1.0000
  N   N2        1.0  0.14265  0.73865  0.35442  1.0000
  C   C12       1.0  0.57352  0.60191  0.34965  1.0000
  C   C13       1.0  0.61996  0.60178  0.34753  1.0000
  C   C14       1.0  0.66681  0.64772  0.34715  1.0000
  C   C15       1.0  0.66664  0.69371  0.34581  1.0000
  C   C16       1.0  0.62153  0.69562  0.34997  1.0000
  C   C17       1.0  0.57455  0.64912  0.34860  1.0000
  C   C18       1.0  0.61807  0.55497  0.33910  1.0000
  C   C19       1.0  0.52784  0.64727  0.33746  1.0000
  H   H5        1.0  0.70043  0.72675  0.34883  1.0000
  C   C20       1.0  0.52653  0.55492  0.34965  1.0000
  C   C21       1.0  0.52549  0.50770  0.34857  1.0000
  C   C22       1.0  0.47851  0.46120  0.34996  1.0000
  C   C23       1.0  0.43341  0.46311  0.34587  1.0000
  C   C24       1.0  0.43323  0.50910  0.34717  1.0000
  C   C25       1.0  0.48007  0.55504  0.34757  1.0000
  C   C26       1.0  0.57220  0.50957  0.33730  1.0000
  H   H6        1.0  0.39961  0.43007  0.34878  1.0000
  C   C27       1.0  0.48197  0.60186  0.33914  1.0000
  H   H7        1.0  0.57401  0.47817  0.32142  1.0000
  H   H8        1.0  0.65022  0.55326  0.32887  1.0000
  H   H9        1.0  0.44984  0.60356  0.32880  1.0000
  H   H10       1.0  0.52603  0.67863  0.32135  1.0000
  N   N3        1.0  0.62885  0.74332  0.35856  1.0000
  N   N4        1.0  0.38977  0.51080  0.35447  1.0000
  N   N5        1.0  0.47118  0.41350  0.35849  1.0000
  C   C28       1.0  0.52652  0.07840  0.34988  1.0000
  C   C29       1.0  0.52665  0.12498  0.34769  1.0000
  C   C30       1.0  0.48070  0.12588  0.34721  1.0000
  C   C31       1.0  0.43472  0.07972  0.34591  1.0000
  C   C32       1.0  0.43281  0.03270  0.35012  1.0000
  C   C33       1.0  0.47931  0.03222  0.34883  1.0000
  C   C34       1.0  0.57347  0.16990  0.33932  1.0000
  C   C35       1.0  0.48117  0.98738  0.33762  1.0000
  H   H11       1.0  0.40169  0.08049  0.34875  1.0000
  C   C36       1.0  0.57352  0.07840  0.34991  1.0000
  C   C37       1.0  0.62073  0.12458  0.34886  1.0000
  C   C38       1.0  0.66723  0.12411  0.35021  1.0000
  C   C39       1.0  0.66532  0.07709  0.34608  1.0000
  C   C40       1.0  0.61934  0.03093  0.34734  1.0000
  C   C41       1.0  0.57339  0.03183  0.34781  1.0000
  C   C42       1.0  0.61887  0.16943  0.33757  1.0000
  H   H12       1.0  0.69836  0.07633  0.34883  1.0000
  C   C43       1.0  0.52658  0.98690  0.33944  1.0000
  H   H13       1.0  0.65024  0.20259  0.32140  1.0000
  H   H14       1.0  0.57516  0.20372  0.32874  1.0000
  H   H15       1.0  0.52488  0.95309  0.32886  1.0000
  H   H16       1.0  0.44982  0.95421  0.32142  1.0000
  N   N6        1.0  0.38510  0.99232  0.35855  1.0000
  N   N7        1.0  0.48241  0.17104  0.35451  1.0000
  N   N8        1.0  0.61763  0.98577  0.35460  1.0000
  N   N9        1.0  0.71494  0.16449  0.35866  1.0000
  C   C44       1.0  0.30289  0.49296  0.36846  1.0000
  C   C45       1.0  0.25341  0.46016  0.33698  1.0000
  C   C46       1.0  0.21495  0.47217  0.34454  1.0000
  H   H17       1.0  0.17992  0.44662  0.32068  1.0000
  H   H18       1.0  0.24463  0.42671  0.30648  1.0000
  C   C47       1.0  0.33948  0.47812  0.35290  1.0000
  H   H19       1.0  0.32796  0.44223  0.33122  1.0000
  C   C48       1.0  0.63547  0.91671  0.36860  1.0000
  C   C49       1.0  0.66828  0.90005  0.33715  1.0000
  C   C50       1.0  0.65627  0.84958  0.34472  1.0000
  H   H20       1.0  0.68180  0.84008  0.32079  1.0000
  H   H21       1.0  0.70172  0.92471  0.30660  1.0000
  C   C51       1.0  0.65030  0.96814  0.35299  1.0000
  H   H22       1.0  0.68620  0.99255  0.33136  1.0000
  C   C52       1.0  0.21169  0.82553  0.36844  1.0000
  C   C53       1.0  0.22837  0.87501  0.33700  1.0000
  C   C54       1.0  0.27884  0.91347  0.34457  1.0000
  H   H23       1.0  0.28833  0.94851  0.32071  1.0000
  H   H24       1.0  0.20369  0.88380  0.30650  1.0000
  C   C55       1.0  0.79717  0.66388  0.36851  1.0000
  C   C56       1.0  0.84666  0.69669  0.33712  1.0000
  C   C57       1.0  0.88511  0.68468  0.34471  1.0000
  H   H25       1.0  0.92014  0.71021  0.32081  1.0000
  H   H26       1.0  0.85544  0.73013  0.30657  1.0000
  C   C58       1.0  0.76056  0.67868  0.35282  1.0000
  H   H27       1.0  0.77209  0.71461  0.33134  1.0000
  C   C59       1.0  0.46457  0.24009  0.36847  1.0000
  C   C60       1.0  0.43177  0.25676  0.33699  1.0000
  C   C61       1.0  0.44377  0.30723  0.34455  1.0000
  H   H28       1.0  0.41823  0.31671  0.32068  1.0000
  H   H29       1.0  0.39831  0.23208  0.30649  1.0000
  C   C62       1.0  0.44973  0.18865  0.35291  1.0000
  H   H30       1.0  0.41384  0.16428  0.33121  1.0000
  C   C63       1.0  0.88833  0.33126  0.36848  1.0000
  C   C64       1.0  0.87166  0.28177  0.33709  1.0000
  C   C65       1.0  0.82119  0.24332  0.34470  1.0000
  H   H31       1.0  0.81169  0.20829  0.32080  1.0000
  H   H32       1.0  0.89632  0.27299  0.30654  1.0000
  C   C66       1.0  0.93975  0.36787  0.35277  1.0000
  H   H33       1.0  0.96415  0.35633  0.33128  1.0000
  C   C67       1.0  0.00345  0.50846  0.34754  1.0000
  C   C68       1.0  0.00255  0.46162  0.34711  1.0000
  C   C69       1.0  0.95852  0.51035  0.33914  1.0000
  C   C70       1.0  0.00383  0.60293  0.34862  1.0000
  C   C71       1.0  0.00431  0.64991  0.34997  1.0000
  C   C72       1.0  0.95897  0.55622  0.33755  1.0000
  H   H34       1.0  0.92580  0.55441  0.32140  1.0000
  H   H35       1.0  0.92468  0.47822  0.32886  1.0000
  H   H36       1.0  0.17534  0.67860  0.32870  1.0000
  N   N10       1.0  0.95739  0.41816  0.35439  1.0000
  N   N11       1.0  0.96394  0.65724  0.35856  1.0000
  N   N12       1.0  0.71026  0.64602  0.35443  1.0000
  C   C73       1.0  0.22417  0.51839  0.38196  1.0000
  C   C74       1.0  0.27429  0.55301  0.41236  1.0000
  C   C75       1.0  0.31226  0.53855  0.41220  1.0000
  C   C76       1.0  0.28736  0.60540  0.43973  1.0000
  H   H37       1.0  0.27453  0.62195  0.38833  1.0000
  H   H38       1.0  0.32762  0.63156  0.44694  1.0000
  H   H39       1.0  0.26922  0.60416  0.50376  1.0000
  C   C77       1.0  0.35761  0.56675  0.47141  1.0000
  H   H40       1.0  0.37252  0.54327  0.49592  1.0000
  H   H41       1.0  0.34828  0.58032  0.53240  1.0000
  H   H42       1.0  0.38707  0.59893  0.43503  1.0000
  C   C78       1.0  0.18414  0.52909  0.38788  1.0000
  H   H43       1.0  0.19056  0.56031  0.42289  1.0000
  C   C79       1.0  0.61005  0.81257  0.38211  1.0000
  C   C80       1.0  0.57542  0.82807  0.41251  1.0000
  C   C81       1.0  0.58988  0.88051  0.41233  1.0000
  C   C82       1.0  0.52304  0.78875  0.43989  1.0000
  H   H44       1.0  0.50648  0.75938  0.38847  1.0000
  H   H45       1.0  0.49687  0.80285  0.44713  1.0000
  H   H46       1.0  0.52428  0.77184  0.50390  1.0000
  C   C83       1.0  0.56167  0.89764  0.47155  1.0000
  H   H47       1.0  0.58515  0.93605  0.49604  1.0000
  H   H48       1.0  0.54813  0.87476  0.53257  1.0000
  H   H49       1.0  0.52948  0.89491  0.43520  1.0000
  C   C84       1.0  0.59934  0.76184  0.38801  1.0000
  H   H50       1.0  0.56810  0.73704  0.42295  1.0000
  C   C85       1.0  0.31584  0.90425  0.38198  1.0000
  C   C86       1.0  0.30033  0.85412  0.41236  1.0000
  C   C87       1.0  0.24791  0.81616  0.41217  1.0000
  C   C88       1.0  0.33964  0.84104  0.43975  1.0000
  H   H51       1.0  0.36903  0.85388  0.38836  1.0000
  H   H52       1.0  0.32553  0.80078  0.44695  1.0000
  H   H53       1.0  0.35654  0.85918  0.50379  1.0000
  C   C89       1.0  0.23074  0.77082  0.47141  1.0000
  H   H54       1.0  0.19234  0.75593  0.49594  1.0000
  H   H55       1.0  0.25363  0.78014  0.53240  1.0000
  H   H56       1.0  0.23342  0.74133  0.43505  1.0000
  C   C90       1.0  0.36657  0.94428  0.38793  1.0000
  H   H57       1.0  0.39135  0.93784  0.42294  1.0000
  C   C91       1.0  0.87588  0.63844  0.38210  1.0000
  C   C92       1.0  0.82575  0.60381  0.41247  1.0000
  C   C93       1.0  0.78777  0.61827  0.41219  1.0000
  C   C94       1.0  0.81268  0.55143  0.43987  1.0000
  H   H58       1.0  0.82551  0.53487  0.38846  1.0000
  H   H59       1.0  0.77242  0.52527  0.44710  1.0000
  H   H60       1.0  0.83083  0.55267  0.50388  1.0000
  C   C95       1.0  0.74245  0.59009  0.47147  1.0000
  H   H61       1.0  0.72750  0.61355  0.49589  1.0000
  H   H62       1.0  0.75182  0.57659  0.53252  1.0000
  H   H63       1.0  0.71299  0.55786  0.43518  1.0000
  C   C96       1.0  0.91591  0.62773  0.38801  1.0000
  H   H64       1.0  0.90946  0.59650  0.42296  1.0000
  C   C97       1.0  0.48999  0.34423  0.38198  1.0000
  C   C98       1.0  0.52461  0.32874  0.41239  1.0000
  C   C99       1.0  0.51015  0.27631  0.41220  1.0000
  C   C100      1.0  0.57700  0.36805  0.43978  1.0000
  H   H65       1.0  0.59356  0.39744  0.38839  1.0000
  H   H66       1.0  0.60315  0.35394  0.44699  1.0000
  H   H67       1.0  0.57576  0.38495  0.50382  1.0000
  C   C101      1.0  0.53832  0.25914  0.47146  1.0000
  H   H68       1.0  0.51480  0.22075  0.49603  1.0000
  H   H69       1.0  0.55191  0.28205  0.53244  1.0000
  H   H70       1.0  0.57048  0.26180  0.43511  1.0000
  C   C102      1.0  0.50069  0.39497  0.38791  1.0000
  H   H71       1.0  0.53191  0.41975  0.42291  1.0000
  C   C103      1.0  0.78419  0.25255  0.38208  1.0000
  C   C104      1.0  0.79970  0.30269  0.41244  1.0000
  C   C105      1.0  0.85213  0.34066  0.41215  1.0000
  C   C106      1.0  0.76038  0.31576  0.43983  1.0000
  H   H72       1.0  0.73099  0.30293  0.38844  1.0000
  H   H73       1.0  0.77449  0.35602  0.44704  1.0000
  H   H74       1.0  0.74348  0.29762  0.50386  1.0000
  C   C107      1.0  0.86927  0.38598  0.47143  1.0000
  H   H75       1.0  0.90769  0.40094  0.49585  1.0000
  H   H76       1.0  0.84641  0.37662  0.53248  1.0000
  H   H77       1.0  0.86650  0.41544  0.43514  1.0000
  C   C108      1.0  0.73345  0.21253  0.38803  1.0000
  H   H78       1.0  0.70867  0.21897  0.42301  1.0000
