data_image0
_chemical_formula_structural       C17H10C2H2C4H2C8H6C6H4C6H2C6H6C17H10C2H2C4H2C8H6C6H4C6H2C6H6C17H10C2H2C4H2C8H6C6H4C6H2C6H6C17H10C2H2C4H2C8H6C6H4C6H2C6H6
_chemical_formula_sum              "C196 H128"
_cell_length_a       32.8912
_cell_length_b       32.8916
_cell_length_c       15.0019
_cell_angle_alpha    90
_cell_angle_beta     90
_cell_angle_gamma    89.9488

_space_group_name_H-M_alt    "P 1"
_space_group_IT_number       1

loop_
  _space_group_symop_operation_xyz
  'x, y, z'

loop_
  _atom_site_type_symbol
  _atom_site_label
  _atom_site_symmetry_multiplicity
  _atom_site_fract_x
  _atom_site_fract_y
  _atom_site_fract_z
  _atom_site_occupancy
  C   C1        1.0  0.99832  0.39472  0.28732  1.0000
  C   C2        1.0  0.03479  0.40675  0.24494  1.0000
  C   C3        1.0  0.03594  0.44099  0.18898  1.0000
  C   C4        1.0  0.00052  0.46413  0.16989  1.0000
  C   C5        1.0  0.46540  0.45446  0.22094  1.0000
  C   C6        1.0  0.46397  0.42015  0.27683  1.0000
  C   C7        1.0  0.00001  0.99991  0.10461  1.0000
  C   C8        1.0  0.99950  0.03570  0.16989  1.0000
  C   C9        1.0  0.46409  0.05884  0.18899  1.0000
  C   C10       1.0  0.46529  0.09313  0.24478  1.0000
  C   C11       1.0  0.00175  0.10511  0.28729  1.0000
  C   C12       1.0  0.03607  0.07964  0.27689  1.0000
  C   C13       1.0  0.03464  0.04536  0.22091  1.0000
  C   C14       1.0  0.03578  0.00040  0.03931  1.0000
  C   C15       1.0  0.46422  0.49942  0.03933  1.0000
  C   C16       1.0  0.44115  0.46401  0.02022  1.0000
  C   C17       1.0  0.05883  0.03583  0.02014  1.0000
  H   H1        1.0  0.44817  0.43677  0.04899  1.0000
  H   H2        1.0  0.05181  0.06306  0.04890  1.0000
  H   H3        1.0  0.06067  0.02867  0.21347  1.0000
  H   H4        1.0  0.06298  0.08668  0.30747  1.0000
  H   H5        1.0  0.43960  0.11057  0.24968  1.0000
  H   H6        1.0  0.43685  0.05185  0.16026  1.0000
  H   H7        1.0  0.43936  0.47114  0.21352  1.0000
  H   H8        1.0  0.06318  0.44798  0.16023  1.0000
  H   H9        1.0  0.06046  0.38928  0.24963  1.0000
  H   H10       1.0  0.43707  0.41312  0.30748  1.0000
  C   C18       1.0  0.46364  0.28813  0.32947  1.0000
  C   C19       1.0  0.46273  0.32956  0.30665  1.0000
  H   H11       1.0  0.44146  0.26964  0.30399  1.0000
  H   H12       1.0  0.43985  0.33930  0.26559  1.0000
  C   C20       1.0  0.00276  0.22843  0.37517  1.0000
  C   C21       1.0  0.00473  0.14408  0.32900  1.0000
  C   C22       1.0  0.03736  0.17024  0.30670  1.0000
  C   C23       1.0  0.03643  0.21168  0.32942  1.0000
  H   H13       1.0  0.06024  0.16050  0.26565  1.0000
  H   H14       1.0  0.05864  0.23015  0.30403  1.0000
  C   C24       1.0  0.45449  0.03456  0.65498  1.0000
  C   C25       1.0  0.42019  0.03599  0.59906  1.0000
  C   C26       1.0  0.39482  0.50165  0.58856  1.0000
  C   C27       1.0  0.40690  0.46518  0.63095  1.0000
  C   C28       1.0  0.04551  0.46527  0.65494  1.0000
  C   C29       1.0  0.07980  0.46384  0.59900  1.0000
  C   C30       1.0  0.10518  0.99818  0.58853  1.0000
  C   C31       1.0  0.09309  0.03466  0.63089  1.0000
  H   H15       1.0  0.41312  0.06289  0.56840  1.0000
  H   H16       1.0  0.47116  0.06057  0.66239  1.0000
  H   H17       1.0  0.38946  0.43951  0.62627  1.0000
  H   H18       1.0  0.02889  0.43923  0.66246  1.0000
  H   H19       1.0  0.08692  0.43692  0.56849  1.0000
  H   H20       1.0  0.11052  0.06032  0.62614  1.0000
  C   C32       1.0  0.49535  0.35574  0.32898  1.0000
  C   C33       1.0  0.52757  0.33946  0.38053  1.0000
  C   C34       1.0  0.52874  0.29788  0.40256  1.0000
  C   C35       1.0  0.49733  0.27137  0.37512  1.0000
  C   C36       1.0  0.97137  0.20193  0.40276  1.0000
  C   C37       1.0  0.97251  0.16035  0.38059  1.0000
  H   H21       1.0  0.94602  0.21323  0.43367  1.0000
  H   H22       1.0  0.94807  0.14266  0.39715  1.0000
  H   H23       1.0  0.55198  0.35716  0.39724  1.0000
  H   H24       1.0  0.55403  0.28658  0.43374  1.0000
  C   C38       1.0  0.14420  0.49521  0.54701  1.0000
  C   C39       1.0  0.17045  0.46266  0.56966  1.0000
  C   C40       1.0  0.21186  0.46352  0.54674  1.0000
  C   C41       1.0  0.22853  0.49718  0.50096  1.0000
  C   C42       1.0  0.20198  0.52856  0.47328  1.0000
  C   C43       1.0  0.16039  0.52740  0.49531  1.0000
  H   H25       1.0  0.21322  0.55382  0.44196  1.0000
  H   H26       1.0  0.14261  0.55175  0.47841  1.0000
  C   C44       1.0  0.27145  0.50265  0.50079  1.0000
  C   C45       1.0  0.28816  0.53632  0.54654  1.0000
  C   C46       1.0  0.32959  0.53725  0.56927  1.0000
  C   C47       1.0  0.35581  0.50462  0.54700  1.0000
  C   C48       1.0  0.33959  0.47238  0.49550  1.0000
  C   C49       1.0  0.29802  0.47125  0.47325  1.0000
  H   H27       1.0  0.26962  0.55855  0.57175  1.0000
  H   H28       1.0  0.33931  0.56019  0.61012  1.0000
  H   H29       1.0  0.35734  0.44799  0.47873  1.0000
  H   H30       1.0  0.16068  0.43971  0.61044  1.0000
  H   H31       1.0  0.28676  0.44592  0.44228  1.0000
  H   H32       1.0  0.23038  0.44131  0.57211  1.0000
  C   C50       1.0  0.99832  0.89472  0.28732  1.0000
  C   C51       1.0  0.03479  0.90675  0.24494  1.0000
  C   C52       1.0  0.03594  0.94099  0.18898  1.0000
  C   C53       1.0  0.00052  0.96413  0.16989  1.0000
  C   C54       1.0  0.46540  0.95446  0.22094  1.0000
  C   C55       1.0  0.46397  0.92015  0.27683  1.0000
  C   C56       1.0  0.00001  0.49991  0.10461  1.0000
  C   C57       1.0  0.99950  0.53570  0.16989  1.0000
  C   C58       1.0  0.46409  0.55884  0.18899  1.0000
  C   C59       1.0  0.46529  0.59313  0.24478  1.0000
  C   C60       1.0  0.00175  0.60511  0.28729  1.0000
  C   C61       1.0  0.03607  0.57964  0.27689  1.0000
  C   C62       1.0  0.03464  0.54536  0.22091  1.0000
  C   C63       1.0  0.03578  0.50040  0.03931  1.0000
  C   C64       1.0  0.46422  0.99942  0.03933  1.0000
  C   C65       1.0  0.44115  0.96401  0.02022  1.0000
  C   C66       1.0  0.05883  0.53583  0.02014  1.0000
  H   H33       1.0  0.44817  0.93677  0.04899  1.0000
  H   H34       1.0  0.05181  0.56307  0.04890  1.0000
  H   H35       1.0  0.06067  0.52867  0.21347  1.0000
  H   H36       1.0  0.06298  0.58667  0.30747  1.0000
  H   H37       1.0  0.43960  0.61057  0.24968  1.0000
  H   H38       1.0  0.43685  0.55185  0.16026  1.0000
  H   H39       1.0  0.43936  0.97114  0.21352  1.0000
  H   H40       1.0  0.06318  0.94798  0.16023  1.0000
  H   H41       1.0  0.06046  0.88928  0.24963  1.0000
  H   H42       1.0  0.43707  0.91312  0.30748  1.0000
  C   C67       1.0  0.46364  0.78814  0.32947  1.0000
  C   C68       1.0  0.46273  0.82956  0.30665  1.0000
  H   H43       1.0  0.44146  0.76964  0.30399  1.0000
  H   H44       1.0  0.43985  0.83930  0.26559  1.0000
  C   C69       1.0  0.00276  0.72843  0.37517  1.0000
  C   C70       1.0  0.00473  0.64408  0.32900  1.0000
  C   C71       1.0  0.03736  0.67024  0.30670  1.0000
  C   C72       1.0  0.03643  0.71167  0.32942  1.0000
  H   H45       1.0  0.06024  0.66050  0.26565  1.0000
  H   H46       1.0  0.05864  0.73015  0.30403  1.0000
  C   C73       1.0  0.45449  0.53456  0.65498  1.0000
  C   C74       1.0  0.42019  0.53599  0.59906  1.0000
  C   C75       1.0  0.39482  0.00165  0.58856  1.0000
  C   C76       1.0  0.40690  0.96517  0.63095  1.0000
  C   C77       1.0  0.04551  0.96527  0.65494  1.0000
  C   C78       1.0  0.07980  0.96384  0.59900  1.0000
  C   C79       1.0  0.10518  0.49818  0.58853  1.0000
  C   C80       1.0  0.09309  0.53466  0.63089  1.0000
  H   H47       1.0  0.41312  0.56289  0.56840  1.0000
  H   H48       1.0  0.47116  0.56058  0.66239  1.0000
  H   H49       1.0  0.38946  0.93951  0.62627  1.0000
  H   H50       1.0  0.02889  0.93923  0.66246  1.0000
  H   H51       1.0  0.08692  0.93692  0.56849  1.0000
  H   H52       1.0  0.11052  0.56033  0.62614  1.0000
  C   C81       1.0  0.49535  0.85574  0.32898  1.0000
  C   C82       1.0  0.52757  0.83946  0.38053  1.0000
  C   C83       1.0  0.52874  0.79788  0.40256  1.0000
  C   C84       1.0  0.49733  0.77136  0.37512  1.0000
  C   C85       1.0  0.97137  0.70193  0.40276  1.0000
  C   C86       1.0  0.97251  0.66035  0.38059  1.0000
  H   H53       1.0  0.94602  0.71323  0.43367  1.0000
  H   H54       1.0  0.94807  0.64266  0.39715  1.0000
  H   H55       1.0  0.55198  0.85716  0.39724  1.0000
  H   H56       1.0  0.55403  0.78658  0.43374  1.0000
  C   C87       1.0  0.14420  0.99521  0.54701  1.0000
  C   C88       1.0  0.17045  0.96266  0.56966  1.0000
  C   C89       1.0  0.21186  0.96352  0.54674  1.0000
  C   C90       1.0  0.22853  0.99718  0.50096  1.0000
  C   C91       1.0  0.20198  0.02856  0.47328  1.0000
  C   C92       1.0  0.16039  0.02740  0.49531  1.0000
  H   H57       1.0  0.21322  0.05382  0.44196  1.0000
  H   H58       1.0  0.14261  0.05175  0.47841  1.0000
  C   C93       1.0  0.27145  0.00265  0.50079  1.0000
  C   C94       1.0  0.28816  0.03632  0.54654  1.0000
  C   C95       1.0  0.32959  0.03725  0.56927  1.0000
  C   C96       1.0  0.35580  0.00462  0.54700  1.0000
  C   C97       1.0  0.33959  0.97238  0.49550  1.0000
  C   C98       1.0  0.29802  0.97125  0.47325  1.0000
  H   H59       1.0  0.26962  0.05855  0.57175  1.0000
  H   H60       1.0  0.33931  0.06020  0.61012  1.0000
  H   H61       1.0  0.35734  0.94799  0.47873  1.0000
  H   H62       1.0  0.16068  0.93971  0.61044  1.0000
  H   H63       1.0  0.28676  0.94592  0.44228  1.0000
  H   H64       1.0  0.23038  0.94131  0.57211  1.0000
  C   C99       1.0  0.49832  0.39472  0.28732  1.0000
  C   C100      1.0  0.53479  0.40675  0.24494  1.0000
  C   C101      1.0  0.53594  0.44099  0.18898  1.0000
  C   C102      1.0  0.50052  0.46413  0.16989  1.0000
  C   C103      1.0  0.96540  0.45446  0.22094  1.0000
  C   C104      1.0  0.96396  0.42015  0.27683  1.0000
  C   C105      1.0  0.50001  0.99991  0.10461  1.0000
  C   C106      1.0  0.49950  0.03570  0.16989  1.0000
  C   C107      1.0  0.96409  0.05884  0.18899  1.0000
  C   C108      1.0  0.96529  0.09313  0.24478  1.0000
  C   C109      1.0  0.50175  0.10511  0.28729  1.0000
  C   C110      1.0  0.53607  0.07964  0.27689  1.0000
  C   C111      1.0  0.53464  0.04536  0.22091  1.0000
  C   C112      1.0  0.53578  0.00040  0.03931  1.0000
  C   C113      1.0  0.96422  0.49942  0.03933  1.0000
  C   C114      1.0  0.94115  0.46401  0.02022  1.0000
  C   C115      1.0  0.55883  0.03583  0.02014  1.0000
  H   H65       1.0  0.94817  0.43677  0.04899  1.0000
  H   H66       1.0  0.55181  0.06306  0.04890  1.0000
  H   H67       1.0  0.56067  0.02867  0.21347  1.0000
  H   H68       1.0  0.56298  0.08668  0.30747  1.0000
  H   H69       1.0  0.93960  0.11057  0.24968  1.0000
  H   H70       1.0  0.93685  0.05185  0.16026  1.0000
  H   H71       1.0  0.93936  0.47114  0.21352  1.0000
  H   H72       1.0  0.56318  0.44798  0.16023  1.0000
  H   H73       1.0  0.56046  0.38928  0.24963  1.0000
  H   H74       1.0  0.93707  0.41312  0.30748  1.0000
  C   C116      1.0  0.96364  0.28813  0.32947  1.0000
  C   C117      1.0  0.96273  0.32956  0.30665  1.0000
  H   H75       1.0  0.94146  0.26964  0.30399  1.0000
  H   H76       1.0  0.93985  0.33930  0.26559  1.0000
  C   C118      1.0  0.50275  0.22843  0.37517  1.0000
  C   C119      1.0  0.50472  0.14408  0.32900  1.0000
  C   C120      1.0  0.53736  0.17024  0.30670  1.0000
  C   C121      1.0  0.53643  0.21168  0.32942  1.0000
  H   H77       1.0  0.56024  0.16050  0.26565  1.0000
  H   H78       1.0  0.55864  0.23015  0.30403  1.0000
  C   C122      1.0  0.95449  0.03456  0.65498  1.0000
  C   C123      1.0  0.92019  0.03599  0.59906  1.0000
  C   C124      1.0  0.89482  0.50165  0.58856  1.0000
  C   C125      1.0  0.90690  0.46518  0.63095  1.0000
  C   C126      1.0  0.54551  0.46527  0.65494  1.0000
  C   C127      1.0  0.57980  0.46384  0.59900  1.0000
  C   C128      1.0  0.60518  0.99818  0.58853  1.0000
  C   C129      1.0  0.59309  0.03466  0.63089  1.0000
  H   H79       1.0  0.91312  0.06289  0.56840  1.0000
  H   H80       1.0  0.97115  0.06057  0.66239  1.0000
  H   H81       1.0  0.88946  0.43951  0.62627  1.0000
  H   H82       1.0  0.52889  0.43923  0.66246  1.0000
  H   H83       1.0  0.58692  0.43692  0.56849  1.0000
  H   H84       1.0  0.61051  0.06032  0.62614  1.0000
  C   C130      1.0  0.99535  0.35574  0.32898  1.0000
  C   C131      1.0  0.02757  0.33946  0.38053  1.0000
  C   C132      1.0  0.02874  0.29788  0.40256  1.0000
  C   C133      1.0  0.99733  0.27137  0.37512  1.0000
  C   C134      1.0  0.47137  0.20193  0.40276  1.0000
  C   C135      1.0  0.47251  0.16035  0.38059  1.0000
  H   H85       1.0  0.44602  0.21323  0.43367  1.0000
  H   H86       1.0  0.44807  0.14266  0.39715  1.0000
  H   H87       1.0  0.05198  0.35716  0.39724  1.0000
  H   H88       1.0  0.05403  0.28658  0.43374  1.0000
  C   C136      1.0  0.64420  0.49521  0.54701  1.0000
  C   C137      1.0  0.67045  0.46266  0.56966  1.0000
  C   C138      1.0  0.71186  0.46352  0.54674  1.0000
  C   C139      1.0  0.72853  0.49718  0.50096  1.0000
  C   C140      1.0  0.70198  0.52856  0.47328  1.0000
  C   C141      1.0  0.66039  0.52740  0.49531  1.0000
  H   H89       1.0  0.71322  0.55382  0.44196  1.0000
  H   H90       1.0  0.64261  0.55175  0.47841  1.0000
  C   C142      1.0  0.77145  0.50265  0.50079  1.0000
  C   C143      1.0  0.78816  0.53632  0.54654  1.0000
  C   C144      1.0  0.82959  0.53725  0.56927  1.0000
  C   C145      1.0  0.85581  0.50462  0.54700  1.0000
  C   C146      1.0  0.83959  0.47238  0.49550  1.0000
  C   C147      1.0  0.79802  0.47125  0.47325  1.0000
  H   H91       1.0  0.76962  0.55855  0.57175  1.0000
  H   H92       1.0  0.83931  0.56019  0.61012  1.0000
  H   H93       1.0  0.85734  0.44799  0.47873  1.0000
  H   H94       1.0  0.66068  0.43971  0.61044  1.0000
  H   H95       1.0  0.78676  0.44592  0.44228  1.0000
  H   H96       1.0  0.73038  0.44131  0.57211  1.0000
  C   C148      1.0  0.49832  0.89472  0.28732  1.0000
  C   C149      1.0  0.53479  0.90675  0.24494  1.0000
  C   C150      1.0  0.53594  0.94099  0.18898  1.0000
  C   C151      1.0  0.50052  0.96413  0.16989  1.0000
  C   C152      1.0  0.96540  0.95446  0.22094  1.0000
  C   C153      1.0  0.96396  0.92015  0.27683  1.0000
  C   C154      1.0  0.50001  0.49991  0.10461  1.0000
  C   C155      1.0  0.49950  0.53570  0.16989  1.0000
  C   C156      1.0  0.96409  0.55884  0.18899  1.0000
  C   C157      1.0  0.96529  0.59313  0.24478  1.0000
  C   C158      1.0  0.50175  0.60511  0.28729  1.0000
  C   C159      1.0  0.53607  0.57964  0.27689  1.0000
  C   C160      1.0  0.53464  0.54536  0.22091  1.0000
  C   C161      1.0  0.53578  0.50040  0.03931  1.0000
  C   C162      1.0  0.96422  0.99942  0.03933  1.0000
  C   C163      1.0  0.94115  0.96401  0.02022  1.0000
  C   C164      1.0  0.55883  0.53583  0.02014  1.0000
  H   H97       1.0  0.94817  0.93677  0.04899  1.0000
  H   H98       1.0  0.55181  0.56307  0.04890  1.0000
  H   H99       1.0  0.56067  0.52867  0.21347  1.0000
  H   H100      1.0  0.56298  0.58667  0.30747  1.0000
  H   H101      1.0  0.93960  0.61057  0.24968  1.0000
  H   H102      1.0  0.93685  0.55185  0.16026  1.0000
  H   H103      1.0  0.93936  0.97114  0.21352  1.0000
  H   H104      1.0  0.56318  0.94798  0.16023  1.0000
  H   H105      1.0  0.56046  0.88928  0.24963  1.0000
  H   H106      1.0  0.93707  0.91312  0.30748  1.0000
  C   C165      1.0  0.96364  0.78814  0.32947  1.0000
  C   C166      1.0  0.96273  0.82956  0.30665  1.0000
  H   H107      1.0  0.94146  0.76964  0.30399  1.0000
  H   H108      1.0  0.93985  0.83930  0.26559  1.0000
  C   C167      1.0  0.50275  0.72843  0.37517  1.0000
  C   C168      1.0  0.50472  0.64408  0.32900  1.0000
  C   C169      1.0  0.53736  0.67024  0.30670  1.0000
  C   C170      1.0  0.53643  0.71167  0.32942  1.0000
  H   H109      1.0  0.56024  0.66050  0.26565  1.0000
  H   H110      1.0  0.55864  0.73015  0.30403  1.0000
  C   C171      1.0  0.95449  0.53456  0.65498  1.0000
  C   C172      1.0  0.92019  0.53599  0.59906  1.0000
  C   C173      1.0  0.89482  0.00165  0.58856  1.0000
  C   C174      1.0  0.90690  0.96517  0.63095  1.0000
  C   C175      1.0  0.54551  0.96527  0.65494  1.0000
  C   C176      1.0  0.57980  0.96384  0.59900  1.0000
  C   C177      1.0  0.60518  0.49818  0.58853  1.0000
  C   C178      1.0  0.59309  0.53466  0.63089  1.0000
  H   H111      1.0  0.91312  0.56289  0.56840  1.0000
  H   H112      1.0  0.97115  0.56058  0.66239  1.0000
  H   H113      1.0  0.88946  0.93951  0.62627  1.0000
  H   H114      1.0  0.52889  0.93923  0.66246  1.0000
  H   H115      1.0  0.58692  0.93692  0.56849  1.0000
  H   H116      1.0  0.61051  0.56033  0.62614  1.0000
  C   C179      1.0  0.99535  0.85574  0.32898  1.0000
  C   C180      1.0  0.02757  0.83946  0.38053  1.0000
  C   C181      1.0  0.02874  0.79788  0.40256  1.0000
  C   C182      1.0  0.99733  0.77136  0.37512  1.0000
  C   C183      1.0  0.47137  0.70193  0.40276  1.0000
  C   C184      1.0  0.47251  0.66035  0.38059  1.0000
  H   H117      1.0  0.44602  0.71323  0.43367  1.0000
  H   H118      1.0  0.44807  0.64266  0.39715  1.0000
  H   H119      1.0  0.05198  0.85716  0.39724  1.0000
  H   H120      1.0  0.05403  0.78658  0.43374  1.0000
  C   C185      1.0  0.64420  0.99521  0.54701  1.0000
  C   C186      1.0  0.67045  0.96266  0.56966  1.0000
  C   C187      1.0  0.71186  0.96352  0.54674  1.0000
  C   C188      1.0  0.72853  0.99718  0.50096  1.0000
  C   C189      1.0  0.70198  0.02856  0.47328  1.0000
  C   C190      1.0  0.66039  0.02740  0.49531  1.0000
  H   H121      1.0  0.71322  0.05382  0.44196  1.0000
  H   H122      1.0  0.64261  0.05175  0.47841  1.0000
  C   C191      1.0  0.77145  0.00265  0.50079  1.0000
  C   C192      1.0  0.78816  0.03632  0.54654  1.0000
  C   C193      1.0  0.82959  0.03725  0.56927  1.0000
  C   C194      1.0  0.85581  0.00462  0.54700  1.0000
  C   C195      1.0  0.83959  0.97238  0.49550  1.0000
  C   C196      1.0  0.79802  0.97125  0.47325  1.0000
  H   H123      1.0  0.76962  0.05855  0.57175  1.0000
  H   H124      1.0  0.83931  0.06020  0.61012  1.0000
  H   H125      1.0  0.85734  0.94799  0.47873  1.0000
  H   H126      1.0  0.66068  0.93971  0.61044  1.0000
  H   H127      1.0  0.78676  0.94592  0.44228  1.0000
  H   H128      1.0  0.73038  0.94131  0.57211  1.0000
