data_image0
_chemical_formula_structural       C2H2C6H4C4H4NC10H7CHC2HCHC2HC2H2C6HNH2C6HNH2CHCH2C2H2NC18H12C2H2C2HC4HNH
_chemical_formula_sum              "C72 H51 N5"
_cell_length_a       32.3603
_cell_length_b       32.3604
_cell_length_c       14.5239
_cell_angle_alpha    90
_cell_angle_beta     90
_cell_angle_gamma    120

_space_group_name_H-M_alt    "P 1"
_space_group_IT_number       1

loop_
  _space_group_symop_operation_xyz
  'x, y, z'

loop_
  _atom_site_type_symbol
  _atom_site_label
  _atom_site_symmetry_multiplicity
  _atom_site_fract_x
  _atom_site_fract_y
  _atom_site_fract_z
  _atom_site_occupancy
  C   C1        1.0  0.12719  0.60059  0.32614  1.0000
  C   C2        1.0  0.07690  0.57620  0.32863  1.0000
  H   H1        1.0  0.14454  0.63354  0.29588  1.0000
  H   H2        1.0  0.05945  0.59204  0.29967  1.0000
  C   C3        1.0  0.30719  0.65760  0.36522  1.0000
  C   C4        1.0  0.28122  0.65579  0.28583  1.0000
  C   C5        1.0  0.23091  0.63067  0.28642  1.0000
  C   C6        1.0  0.20478  0.60647  0.36630  1.0000
  C   C7        1.0  0.23135  0.60856  0.44562  1.0000
  C   C8        1.0  0.28165  0.63366  0.44514  1.0000
  H   H3        1.0  0.29895  0.67259  0.22687  1.0000
  H   H4        1.0  0.21346  0.62958  0.22692  1.0000
  H   H5        1.0  0.29970  0.63479  0.50377  1.0000
  H   H6        1.0  0.21424  0.59251  0.50556  1.0000
  C   C9        1.0  0.05075  0.53132  0.37243  1.0000
  C   C10       1.0  0.07677  0.51123  0.41157  1.0000
  C   C11       1.0  0.12706  0.53582  0.40963  1.0000
  C   C12       1.0  0.15348  0.58115  0.36717  1.0000
  H   H7        1.0  0.05917  0.47838  0.44227  1.0000
  H   H8        1.0  0.14427  0.51972  0.43847  1.0000
  H   H9        1.0  0.02819  0.52513  0.55108  1.0000
  H   H10       1.0  0.40733  0.51910  0.29625  1.0000
  N   N1        1.0  0.35790  0.68304  0.36468  1.0000
  C   C13       1.0  0.38335  0.65777  0.36521  1.0000
  C   C14       1.0  0.38317  0.73376  0.36520  1.0000
  C   C15       1.0  0.38509  0.63355  0.28587  1.0000
  C   C16       1.0  0.41020  0.60835  0.28645  1.0000
  C   C17       1.0  0.43247  0.63105  0.44554  1.0000
  C   C18       1.0  0.40736  0.65625  0.44507  1.0000
  C   C19       1.0  0.38480  0.75929  0.44514  1.0000
  C   C20       1.0  0.41000  0.80960  0.44562  1.0000
  C   C21       1.0  0.43247  0.81004  0.28636  1.0000
  C   C22       1.0  0.40729  0.75973  0.28578  1.0000
  H   H11       1.0  0.41123  0.59192  0.22700  1.0000
  H   H12       1.0  0.36822  0.63441  0.22696  1.0000
  H   H13       1.0  0.40629  0.67322  0.50367  1.0000
  H   H14       1.0  0.36792  0.74125  0.50380  1.0000
  H   H15       1.0  0.41110  0.82671  0.50559  1.0000
  H   H16       1.0  0.40635  0.74199  0.22683  1.0000
  H   H17       1.0  0.40827  0.89668  0.43866  1.0000
  C   C23       1.0  0.54559  0.48696  0.29162  1.0000
  H   H18       1.0  0.53558  0.49488  0.23021  1.0000
  C   C24       1.0  0.44032  0.53474  0.32637  1.0000
  C   C25       1.0  0.46472  0.50885  0.32884  1.0000
  H   H19       1.0  0.44884  0.47552  0.30008  1.0000
  C   C26       1.0  0.55394  0.06682  0.29160  1.0000
  H   H20       1.0  0.54597  0.04889  0.23018  1.0000
  C   C27       1.0  0.50614  0.91376  0.32604  1.0000
  C   C28       1.0  0.53205  0.96405  0.32854  1.0000
  H   H21       1.0  0.52171  0.89641  0.29565  1.0000
  C   C29       1.0  0.43448  0.60650  0.36628  1.0000
  C   C30       1.0  0.43445  0.83616  0.36628  1.0000
  H   H22       1.0  0.44859  0.63006  0.50544  1.0000
  H   H23       1.0  0.44883  0.82748  0.22687  1.0000
  C   C31       1.0  0.54903  0.48930  0.45941  1.0000
  C   C32       1.0  0.53438  0.50123  0.37566  1.0000
  C   C33       1.0  0.50965  0.52764  0.37245  1.0000
  C   C34       1.0  0.52979  0.57380  0.41134  1.0000
  C   C35       1.0  0.50521  0.59951  0.40936  1.0000
  C   C36       1.0  0.45981  0.58053  0.36715  1.0000
  H   H24       1.0  0.52134  0.63285  0.43806  1.0000
  N   N2        1.0  0.53725  0.49857  0.54391  1.0000
  H   H25       1.0  0.54653  0.48897  0.60015  1.0000
  H   H26       1.0  0.51616  0.51161  0.55115  1.0000
  C   C37       1.0  0.55178  0.06792  0.45941  1.0000
  C   C38       1.0  0.53977  0.04133  0.37564  1.0000
  C   C39       1.0  0.51334  0.99020  0.37245  1.0000
  C   C40       1.0  0.46727  0.96418  0.41169  1.0000
  C   C41       1.0  0.44155  0.91389  0.40973  1.0000
  C   C42       1.0  0.46043  0.88746  0.36716  1.0000
  H   H27       1.0  0.45203  0.98177  0.44248  1.0000
  N   N3        1.0  0.54259  0.04686  0.54390  1.0000
  H   H28       1.0  0.52993  0.01278  0.55101  1.0000
  H   H29       1.0  0.55256  0.06578  0.60007  1.0000
  C   C43       1.0  0.57097  0.46214  0.28965  1.0000
  H   H30       1.0  0.57704  0.45184  0.22691  1.0000
  C   C44       1.0  0.57876  0.11702  0.28964  1.0000
  H   H31       1.0  0.58899  0.13339  0.22688  1.0000
  H   H32       1.0  0.56531  0.98150  0.29945  1.0000
  C   C45       1.0  0.97413  0.49531  0.29159  1.0000
  C   C46       1.0  0.92393  0.46992  0.28963  1.0000
  H   H33       1.0  0.99206  0.50527  0.23017  1.0000
  H   H34       1.0  0.90756  0.46381  0.22687  1.0000
  N   N4        1.0  0.69124  0.34972  0.36453  1.0000
  C   C47       1.0  0.66522  0.37462  0.36593  1.0000
  C   C48       1.0  0.66633  0.29879  0.36593  1.0000
  C   C49       1.0  0.74216  0.37573  0.36591  1.0000
  C   C50       1.0  0.76722  0.40755  0.43838  1.0000
  C   C51       1.0  0.81750  0.43344  0.43942  1.0000
  C   C52       1.0  0.84498  0.42784  0.36943  1.0000
  C   C53       1.0  0.81918  0.39533  0.29748  1.0000
  C   C54       1.0  0.76887  0.37020  0.29515  1.0000
  C   C55       1.0  0.63344  0.36790  0.43844  1.0000
  C   C56       1.0  0.60754  0.39228  0.43947  1.0000
  C   C57       1.0  0.61312  0.42533  0.36945  1.0000
  C   C58       1.0  0.64560  0.43202  0.29745  1.0000
  C   C59       1.0  0.67073  0.40684  0.29512  1.0000
  C   C60       1.0  0.63409  0.27208  0.29515  1.0000
  C   C61       1.0  0.60890  0.22177  0.29750  1.0000
  C   C62       1.0  0.61563  0.19598  0.36945  1.0000
  C   C63       1.0  0.64872  0.22345  0.43941  1.0000
  C   C64       1.0  0.67309  0.27374  0.43839  1.0000
  H   H35       1.0  0.58381  0.38487  0.49200  1.0000
  H   H36       1.0  0.62849  0.34454  0.49044  1.0000
  H   H37       1.0  0.69381  0.41271  0.24206  1.0000
  H   H38       1.0  0.65206  0.45610  0.24604  1.0000
  H   H39       1.0  0.74881  0.41252  0.49036  1.0000
  H   H40       1.0  0.83382  0.45722  0.49189  1.0000
  H   H41       1.0  0.62815  0.28929  0.24217  1.0000
  H   H42       1.0  0.58478  0.20416  0.24616  1.0000
  H   H43       1.0  0.65617  0.20714  0.49191  1.0000
  H   H44       1.0  0.69647  0.29214  0.49036  1.0000
  H   H45       1.0  0.75166  0.34708  0.24212  1.0000
  H   H46       1.0  0.83679  0.38883  0.24612  1.0000
  C   C65       1.0  0.58702  0.45081  0.37142  1.0000
  C   C66       1.0  0.57563  0.46527  0.45532  1.0000
  H   H47       1.0  0.56268  0.58910  0.44188  1.0000
  H   H48       1.0  0.58711  0.45828  0.51586  1.0000
  C   C67       1.0  0.59016  0.14440  0.37141  1.0000
  C   C68       1.0  0.57578  0.11854  0.45532  1.0000
  H   H49       1.0  0.58282  0.13702  0.51587  1.0000
  C   C69       1.0  0.89655  0.45395  0.37140  1.0000
  C   C70       1.0  0.92241  0.46541  0.45530  1.0000
  C   C71       1.0  0.97303  0.49202  0.45939  1.0000
  C   C72       1.0  0.99962  0.50661  0.37564  1.0000
  H   H50       1.0  0.90393  0.45397  0.51585  1.0000
  N   N5        1.0  0.99410  0.50388  0.54388  1.0000
  H   H51       1.0  0.97518  0.49478  0.60008  1.0000
