data_image0
_chemical_formula_structural       C3H2NC3H2NC3H2NC3N2O4NCNO2C3N2O4NC2NO2NC3N2O4NC3N2O4NC3N2O4N2O2NO2NCNCNCNC3H3CNCNCNC3H3CNCNCNC3H3CNCNCNC3H3CNCNCNC3H3CNCNCNC3H3CNCNCNC3H2C3N2O4NCNO2NC3N2O4NC3N2O4NC3H2NC2HNC3H2NCHC3H2NC3H2NC3H2N2C3H2NC3H2NC3H2NC3N2O4NC2NO2NC3N2O4NCNO2C3N2O4NC3NO2NC3NO2CNCNCNC3H3CNCNCNC3H3CNCNCNC3H3CNCNCNC3H4CNCNCNC3H3C2NO2C3N2O4NC3N2O4NC3H2NCHC3H2NC2HNC3H2NC3H2C3H2N
_chemical_formula_sum              "C180 H72 N108 O72"
_cell_length_a       57.1137
_cell_length_b       57.1137
_cell_length_c       14.4716
_cell_angle_alpha    90
_cell_angle_beta     90
_cell_angle_gamma    120

_space_group_name_H-M_alt    "P 1"
_space_group_IT_number       1

loop_
  _space_group_symop_operation_xyz
  'x, y, z'

loop_
  _atom_site_type_symbol
  _atom_site_label
  _atom_site_symmetry_multiplicity
  _atom_site_fract_x
  _atom_site_fract_y
  _atom_site_fract_z
  _atom_site_occupancy
  C   C1        1.0  0.20519  0.37508  0.37379  1.0000
  C   C2        1.0  0.22615  0.38996  0.30950  1.0000
  C   C3        1.0  0.24045  0.41852  0.30926  1.0000
  H   H1        1.0  0.25495  0.42842  0.25997  1.0000
  H   H2        1.0  0.23074  0.38002  0.26037  1.0000
  N   N1        1.0  0.19015  0.34779  0.37303  1.0000
  C   C4        1.0  0.20641  0.83207  0.37378  1.0000
  C   C5        1.0  0.20033  0.81111  0.30950  1.0000
  C   C6        1.0  0.21458  0.79680  0.30927  1.0000
  H   H3        1.0  0.20998  0.78231  0.25998  1.0000
  H   H4        1.0  0.18579  0.80652  0.26037  1.0000
  N   N2        1.0  0.19416  0.84711  0.37303  1.0000
  C   C7        1.0  0.38700  0.19448  0.37379  1.0000
  C   C8        1.0  0.40188  0.18840  0.30950  1.0000
  C   C9        1.0  0.43044  0.20266  0.30927  1.0000
  H   H5        1.0  0.44034  0.19806  0.25999  1.0000
  H   H6        1.0  0.39194  0.17387  0.26038  1.0000
  N   N3        1.0  0.35972  0.18223  0.37303  1.0000
  C   C10       1.0  0.23458  0.19193  0.34805  1.0000
  C   C11       1.0  0.21841  0.19129  0.27193  1.0000
  C   C12       1.0  0.20572  0.20740  0.27191  1.0000
  N   N4        1.0  0.21471  0.17522  0.19255  1.0000
  N   N5        1.0  0.19132  0.20664  0.19108  1.0000
  O   O1        1.0  0.20303  0.15044  0.21151  1.0000
  O   O2        1.0  0.16641  0.19620  0.20532  1.0000
  O   O3        1.0  0.23668  0.18192  0.15237  1.0000
  O   O4        1.0  0.20027  0.22956  0.15492  1.0000
  N   N6        1.0  0.24571  0.17585  0.34783  1.0000
  C   C13       1.0  0.03819  0.83154  0.27189  1.0000
  N   N7        1.0  0.05183  0.84593  0.19107  1.0000
  O   O5        1.0  0.06630  0.87085  0.20531  1.0000
  O   O6        1.0  0.06580  0.83699  0.15492  1.0000
  C   C14       1.0  0.20385  0.98194  0.34805  1.0000
  C   C15       1.0  0.20322  0.99747  0.27193  1.0000
  C   C16       1.0  0.21932  0.02627  0.27191  1.0000
  N   N8        1.0  0.18714  0.98510  0.19255  1.0000
  N   N9        1.0  0.21857  0.03991  0.19108  1.0000
  O   O7        1.0  0.16236  0.97200  0.21151  1.0000
  O   O8        1.0  0.20812  0.05438  0.20532  1.0000
  O   O9        1.0  0.19384  0.96983  0.15237  1.0000
  O   O10       1.0  0.24148  0.05388  0.15492  1.0000
  N   N10       1.0  0.18777  0.95473  0.34783  1.0000
  C   C17       1.0  0.05532  0.22265  0.34804  1.0000
  C   C18       1.0  0.03978  0.20649  0.27192  1.0000
  N   N11       1.0  0.05216  0.20279  0.19253  1.0000
  O   O11       1.0  0.06525  0.19111  0.21148  1.0000
  O   O12       1.0  0.06743  0.22477  0.15236  1.0000
  N   N12       1.0  0.08253  0.23379  0.34782  1.0000
  C   C19       1.0  0.25541  0.65170  0.35899  1.0000
  C   C20       1.0  0.22976  0.62752  0.35143  1.0000
  C   C21       1.0  0.22767  0.60152  0.35196  1.0000
  N   N13       1.0  0.20536  0.62812  0.34205  1.0000
  N   N14       1.0  0.20166  0.57842  0.34313  1.0000
  O   O13       1.0  0.20103  0.63891  0.41063  1.0000
  O   O14       1.0  0.19560  0.56323  0.41244  1.0000
  O   O15       1.0  0.20512  0.64016  0.26969  1.0000
  O   O16       1.0  0.19977  0.56516  0.27148  1.0000
  N   N15       1.0  0.25698  0.67654  0.35732  1.0000
  C   C22       1.0  0.38556  0.60445  0.35899  1.0000
  C   C23       1.0  0.40974  0.60298  0.35146  1.0000
  C   C24       1.0  0.43574  0.62689  0.35199  1.0000
  N   N16       1.0  0.40914  0.57799  0.34211  1.0000
  N   N17       1.0  0.45884  0.62398  0.34319  1.0000
  O   O17       1.0  0.39835  0.56287  0.41071  1.0000
  O   O18       1.0  0.47402  0.63311  0.41250  1.0000
  O   O19       1.0  0.39710  0.56570  0.26976  1.0000
  O   O20       1.0  0.47210  0.63535  0.27154  1.0000
  N   N18       1.0  0.36072  0.58118  0.35733  1.0000
  C   C25       1.0  0.43280  0.78185  0.35897  1.0000
  C   C26       1.0  0.43427  0.80750  0.35143  1.0000
  C   C27       1.0  0.41037  0.80959  0.35197  1.0000
  N   N19       1.0  0.45927  0.83189  0.34205  1.0000
  N   N20       1.0  0.41328  0.83560  0.34315  1.0000
  O   O21       1.0  0.47439  0.83623  0.41063  1.0000
  O   O22       1.0  0.40415  0.84166  0.41246  1.0000
  O   O23       1.0  0.47155  0.83214  0.26969  1.0000
  O   O24       1.0  0.40191  0.83749  0.27150  1.0000
  N   N21       1.0  0.45608  0.78028  0.35729  1.0000
  N   N22       1.0  0.59034  0.40135  0.34315  1.0000
  O   O25       1.0  0.57516  0.39223  0.41246  1.0000
  O   O26       1.0  0.57708  0.38998  0.27150  1.0000
  N   N23       1.0  0.58991  0.19344  0.34211  1.0000
  O   O27       1.0  0.57479  0.18911  0.41071  1.0000
  O   O28       1.0  0.57762  0.19319  0.26976  1.0000
  N   N24       1.0  0.59311  0.24506  0.35733  1.0000
  C   C28       1.0  0.17538  0.30111  0.35643  1.0000
  N   N25       1.0  0.18335  0.28217  0.35454  1.0000
  C   C29       1.0  0.16542  0.25507  0.35914  1.0000
  N   N26       1.0  0.13855  0.24713  0.36480  1.0000
  C   C30       1.0  0.12940  0.26511  0.36635  1.0000
  N   N27       1.0  0.14831  0.29200  0.36274  1.0000
  C   C31       1.0  0.10200  0.25705  0.37428  1.0000
  C   C32       1.0  0.19467  0.32856  0.34995  1.0000
  C   C33       1.0  0.17347  0.23560  0.35922  1.0000
  H   H7        1.0  0.15906  0.21636  0.36590  1.0000
  H   H8        1.0  0.21313  0.33347  0.32888  1.0000
  H   H9        1.0  0.09732  0.27052  0.39826  1.0000
  C   C34       1.0  0.16224  0.86188  0.35643  1.0000
  N   N28       1.0  0.13533  0.85390  0.35454  1.0000
  C   C35       1.0  0.12616  0.87183  0.35914  1.0000
  N   N29       1.0  0.14509  0.89871  0.36479  1.0000
  C   C36       1.0  0.17222  0.90785  0.36635  1.0000
  N   N30       1.0  0.18020  0.88895  0.36274  1.0000
  C   C37       1.0  0.19157  0.93526  0.37428  1.0000
  C   C38       1.0  0.17040  0.84259  0.34995  1.0000
  C   C39       1.0  0.09865  0.86379  0.35921  1.0000
  H   H10       1.0  0.09381  0.87820  0.36588  1.0000
  H   H11       1.0  0.15685  0.82412  0.32888  1.0000
  H   H12       1.0  0.20971  0.93994  0.39826  1.0000
  C   C40       1.0  0.31303  0.15032  0.35644  1.0000
  N   N31       1.0  0.29410  0.12341  0.35454  1.0000
  C   C41       1.0  0.26699  0.11423  0.35914  1.0000
  N   N32       1.0  0.25906  0.13317  0.36480  1.0000
  C   C42       1.0  0.27703  0.16030  0.36635  1.0000
  N   N33       1.0  0.30392  0.16828  0.36274  1.0000
  C   C43       1.0  0.26897  0.17964  0.37428  1.0000
  C   C44       1.0  0.34048  0.15848  0.34995  1.0000
  C   C45       1.0  0.24753  0.08673  0.35922  1.0000
  H   H13       1.0  0.22828  0.08189  0.36590  1.0000
  H   H14       1.0  0.34539  0.14492  0.32888  1.0000
  H   H15       1.0  0.28244  0.19779  0.39826  1.0000
  C   C46       1.0  0.27661  0.50750  0.35411  1.0000
  N   N34       1.0  0.30316  0.52801  0.35523  1.0000
  C   C47       1.0  0.30989  0.55459  0.35908  1.0000
  N   N35       1.0  0.28917  0.55973  0.36068  1.0000
  C   C48       1.0  0.26274  0.54059  0.35870  1.0000
  N   N36       1.0  0.25677  0.51433  0.35539  1.0000
  C   C49       1.0  0.24364  0.54933  0.35801  1.0000
  C   C50       1.0  0.26997  0.48043  0.34911  1.0000
  C   C51       1.0  0.33556  0.57822  0.36087  1.0000
  H   H16       1.0  0.33488  0.59573  0.36401  1.0000
  H   H17       1.0  0.28421  0.47629  0.32987  1.0000
  H   H18       1.0  0.22344  0.53566  0.35402  1.0000
  C   C52       1.0  0.52976  0.76985  0.35409  1.0000
  N   N37       1.0  0.50925  0.77589  0.35519  1.0000
  C   C53       1.0  0.48267  0.75604  0.35901  1.0000
  N   N38       1.0  0.47753  0.73018  0.36064  1.0000
  C   C54       1.0  0.49666  0.72289  0.35868  1.0000
  N   N39       1.0  0.52293  0.74319  0.35538  1.0000
  C   C55       1.0  0.48793  0.69505  0.35801  1.0000
  C   C56       1.0  0.55683  0.79029  0.34910  1.0000
  C   C57       1.0  0.45904  0.75809  0.36082  1.0000
  H   H19       1.0  0.44153  0.73989  0.36396  1.0000
  H   H20       1.0  0.56097  0.80866  0.32989  1.0000
  H   H21       1.0  0.50159  0.68852  0.35405  1.0000
  C   C58       1.0  0.26741  0.76065  0.35411  1.0000
  N   N40       1.0  0.26137  0.73410  0.35523  1.0000
  C   C59       1.0  0.28122  0.72737  0.35908  1.0000
  N   N41       1.0  0.30707  0.74809  0.36069  1.0000
  C   C60       1.0  0.31437  0.77452  0.35871  1.0000
  N   N42       1.0  0.29407  0.78049  0.35539  1.0000
  C   C61       1.0  0.34220  0.79362  0.35802  1.0000
  C   C62       1.0  0.24697  0.76729  0.34911  1.0000
  C   C63       1.0  0.27917  0.70169  0.36087  1.0000
  H   H22       1.0  0.29737  0.70238  0.36402  1.0000
  H   H23       1.0  0.22860  0.75305  0.32987  1.0000
  H   H24       1.0  0.34874  0.81382  0.35404  1.0000
  C   C64       1.0  0.51942  0.25548  0.35412  1.0000
  N   N43       1.0  0.53993  0.24945  0.35523  1.0000
  C   C65       1.0  0.56651  0.26930  0.35908  1.0000
  N   N44       1.0  0.57165  0.29515  0.36068  1.0000
  C   C66       1.0  0.55252  0.30245  0.35870  1.0000
  N   N45       1.0  0.52625  0.28215  0.35539  1.0000
  C   C67       1.0  0.56125  0.33028  0.35802  1.0000
  C   C68       1.0  0.49235  0.23505  0.34911  1.0000
  C   C69       1.0  0.59014  0.26724  0.36087  1.0000
  H   H25       1.0  0.48822  0.21667  0.32988  1.0000
  H   H26       1.0  0.54759  0.33681  0.35404  1.0000
  C   C70       1.0  0.23442  0.43346  0.37331  1.0000
  C   C71       1.0  0.21331  0.41874  0.43831  1.0000
  C   C72       1.0  0.19891  0.38991  0.43866  1.0000
  N   N46       1.0  0.20585  0.43190  0.50561  1.0000
  N   N47       1.0  0.17845  0.37688  0.50652  1.0000
  O   O29       1.0  0.19714  0.44609  0.46966  1.0000
  O   O30       1.0  0.18346  0.36267  0.56029  1.0000
  O   O31       1.0  0.22511  0.44632  0.55904  1.0000
  O   O32       1.0  0.15548  0.36253  0.47120  1.0000
  N   N48       1.0  0.24637  0.46068  0.37108  1.0000
  C   C73       1.0  0.60380  0.80170  0.37330  1.0000
  N   N49       1.0  0.60536  0.77470  0.50562  1.0000
  O   O33       1.0  0.59116  0.75180  0.46969  1.0000
  O   O34       1.0  0.59093  0.77954  0.55904  1.0000
  N   N50       1.0  0.57658  0.78644  0.37106  1.0000
  C   C74       1.0  0.23556  0.80284  0.37331  1.0000
  C   C75       1.0  0.24195  0.82395  0.43830  1.0000
  C   C76       1.0  0.22752  0.83835  0.43865  1.0000
  N   N51       1.0  0.26256  0.83141  0.50560  1.0000
  N   N52       1.0  0.23496  0.85882  0.50650  1.0000
  O   O35       1.0  0.28547  0.84012  0.46964  1.0000
  O   O36       1.0  0.21572  0.85380  0.56028  1.0000
  O   O37       1.0  0.25773  0.81215  0.55903  1.0000
  O   O38       1.0  0.24357  0.88178  0.47117  1.0000
  N   N53       1.0  0.25082  0.79089  0.37107  1.0000
  C   C77       1.0  0.44539  0.22363  0.37331  1.0000
  C   C78       1.0  0.43067  0.23002  0.43830  1.0000
  C   C79       1.0  0.40184  0.21559  0.43865  1.0000
  N   N54       1.0  0.44382  0.25064  0.50559  1.0000
  N   N55       1.0  0.38881  0.22303  0.50650  1.0000
  O   O39       1.0  0.45802  0.27355  0.46964  1.0000
  O   O40       1.0  0.37459  0.20380  0.56028  1.0000
  O   O41       1.0  0.45825  0.24581  0.55903  1.0000
  O   O42       1.0  0.37445  0.23164  0.47117  1.0000
  N   N56       1.0  0.47260  0.23889  0.37108  1.0000
  C   C80       1.0  0.20826  0.22391  0.34955  1.0000
  C   C81       1.0  0.22460  0.22459  0.42395  1.0000
  C   C82       1.0  0.23730  0.20880  0.42365  1.0000
  H   H27       1.0  0.24852  0.20957  0.47988  1.0000
  H   H28       1.0  0.22732  0.23669  0.47981  1.0000
  N   N57       1.0  0.19819  0.24086  0.35147  1.0000
  C   C83       1.0  0.05216  0.82900  0.34954  1.0000
  C   C84       1.0  0.03650  0.81265  0.42393  1.0000
  H   H29       1.0  0.04588  0.80993  0.47980  1.0000
  N   N58       1.0  0.07918  0.83907  0.35147  1.0000
  C   C85       1.0  0.23583  0.04024  0.34955  1.0000
  C   C86       1.0  0.23651  0.02458  0.42394  1.0000
  C   C87       1.0  0.22073  0.99609  0.42364  1.0000
  H   H30       1.0  0.22150  0.98565  0.47987  1.0000
  H   H31       1.0  0.24861  0.03395  0.47980  1.0000
  N   N59       1.0  0.25278  0.06726  0.35147  1.0000
  C   C88       1.0  0.04116  0.22538  0.42364  1.0000
  H   H32       1.0  0.05161  0.23659  0.47988  1.0000
  C   C89       1.0  0.25133  0.59937  0.36005  1.0000
  C   C90       1.0  0.27651  0.62317  0.36776  1.0000
  C   C91       1.0  0.27849  0.64864  0.36744  1.0000
  H   H33       1.0  0.29748  0.66489  0.37375  1.0000
  H   H34       1.0  0.29389  0.62218  0.37375  1.0000
  N   N60       1.0  0.25245  0.57620  0.36022  1.0000
  C   C92       1.0  0.43789  0.65271  0.36005  1.0000
  C   C93       1.0  0.41409  0.65409  0.36773  1.0000
  C   C94       1.0  0.38862  0.63060  0.36741  1.0000
  H   H35       1.0  0.37237  0.63333  0.37370  1.0000
  H   H36       1.0  0.41508  0.67245  0.37369  1.0000
  N   N61       1.0  0.46106  0.67699  0.36022  1.0000
  C   C95       1.0  0.38455  0.78592  0.36006  1.0000
  C   C96       1.0  0.38317  0.76075  0.36776  1.0000
  C   C97       1.0  0.40666  0.75877  0.36743  1.0000
  H   H37       1.0  0.40393  0.73978  0.37373  1.0000
  H   H38       1.0  0.36481  0.74337  0.37375  1.0000
  N   N62       1.0  0.36027  0.78481  0.36023  1.0000
  N   N63       1.0  0.58812  0.34834  0.36022  1.0000
  C   C98       1.0  0.66218  0.83086  0.37378  1.0000
  C   C99       1.0  0.64730  0.83693  0.30948  1.0000
  C   C100      1.0  0.61874  0.82268  0.30925  1.0000
  H   H39       1.0  0.60884  0.82727  0.25995  1.0000
  H   H40       1.0  0.65724  0.85146  0.26034  1.0000
  N   N64       1.0  0.68947  0.84310  0.37303  1.0000
  C   C101      1.0  0.84399  0.65026  0.37378  1.0000
  C   C102      1.0  0.82303  0.63537  0.30949  1.0000
  C   C103      1.0  0.80873  0.60681  0.30925  1.0000
  H   H41       1.0  0.79423  0.59692  0.25996  1.0000
  H   H42       1.0  0.81844  0.64531  0.26036  1.0000
  N   N65       1.0  0.85903  0.67754  0.37303  1.0000
  C   C104      1.0  0.84278  0.19327  0.37379  1.0000
  C   C105      1.0  0.84885  0.21422  0.30949  1.0000
  C   C106      1.0  0.83460  0.22853  0.30925  1.0000
  H   H43       1.0  0.83919  0.24302  0.25995  1.0000
  H   H44       1.0  0.86338  0.21881  0.26035  1.0000
  N   N66       1.0  0.85503  0.17823  0.37303  1.0000
  C   C107      1.0  0.84533  0.04340  0.34803  1.0000
  C   C108      1.0  0.84596  0.02786  0.27191  1.0000
  C   C109      1.0  0.82985  0.99907  0.27188  1.0000
  N   N67       1.0  0.86203  0.04023  0.19251  1.0000
  N   N68       1.0  0.83060  0.98542  0.19104  1.0000
  O   O43       1.0  0.88681  0.05333  0.21146  1.0000
  O   O44       1.0  0.84105  0.97095  0.20527  1.0000
  O   O45       1.0  0.85533  0.05551  0.15235  1.0000
  O   O46       1.0  0.80768  0.97145  0.15491  1.0000
  N   N69       1.0  0.86141  0.07060  0.34781  1.0000
  C   C110      1.0  0.99386  0.80268  0.34803  1.0000
  C   C111      1.0  0.00940  0.81885  0.27192  1.0000
  N   N70       1.0  0.99702  0.82255  0.19253  1.0000
  O   O47       1.0  0.98393  0.83423  0.21149  1.0000
  O   O48       1.0  0.98175  0.80057  0.15235  1.0000
  N   N71       1.0  0.96665  0.79155  0.34781  1.0000
  C   C112      1.0  0.81460  0.83341  0.34803  1.0000
  C   C113      1.0  0.83077  0.83404  0.27191  1.0000
  C   C114      1.0  0.84345  0.81793  0.27188  1.0000
  N   N72       1.0  0.83447  0.85011  0.19251  1.0000
  N   N73       1.0  0.85785  0.81868  0.19104  1.0000
  O   O49       1.0  0.84614  0.87489  0.21145  1.0000
  O   O50       1.0  0.88277  0.82913  0.20526  1.0000
  O   O51       1.0  0.81249  0.84340  0.15234  1.0000
  O   O52       1.0  0.84890  0.79576  0.15490  1.0000
  N   N74       1.0  0.80347  0.84948  0.34781  1.0000
  C   C115      1.0  0.01099  0.19380  0.27189  1.0000
  N   N75       1.0  0.99735  0.17941  0.19106  1.0000
  O   O53       1.0  0.98288  0.15449  0.20528  1.0000
  O   O54       1.0  0.98338  0.18836  0.15492  1.0000
  C   C116      1.0  0.79377  0.37364  0.35897  1.0000
  C   C117      1.0  0.81942  0.39781  0.35146  1.0000
  C   C118      1.0  0.82152  0.42382  0.35199  1.0000
  N   N76       1.0  0.84382  0.39722  0.34212  1.0000
  N   N77       1.0  0.84753  0.44692  0.34321  1.0000
  O   O55       1.0  0.84814  0.38643  0.41071  1.0000
  O   O56       1.0  0.85358  0.46210  0.41253  1.0000
  O   O57       1.0  0.84407  0.38518  0.26976  1.0000
  O   O58       1.0  0.84943  0.46019  0.27156  1.0000
  N   N78       1.0  0.79220  0.34879  0.35730  1.0000
  C   C119      1.0  0.66362  0.42088  0.35897  1.0000
  C   C120      1.0  0.63944  0.42235  0.35143  1.0000
  C   C121      1.0  0.61344  0.39844  0.35197  1.0000
  N   N79       1.0  0.64004  0.44735  0.34206  1.0000
  O   O59       1.0  0.65084  0.46247  0.41063  1.0000
  O   O60       1.0  0.65208  0.45963  0.26969  1.0000
  N   N80       1.0  0.68846  0.44415  0.35729  1.0000
  C   C122      1.0  0.61638  0.24349  0.35899  1.0000
  C   C123      1.0  0.61491  0.21784  0.35146  1.0000
  C   C124      1.0  0.63882  0.21574  0.35199  1.0000
  N   N81       1.0  0.63590  0.18973  0.34319  1.0000
  O   O61       1.0  0.64504  0.18368  0.41250  1.0000
  O   O62       1.0  0.64727  0.18783  0.27154  1.0000
  C   C125      1.0  0.73615  0.87502  0.35642  1.0000
  N   N82       1.0  0.75508  0.90192  0.35452  1.0000
  C   C126      1.0  0.78219  0.91110  0.35913  1.0000
  N   N83       1.0  0.79013  0.89216  0.36478  1.0000
  C   C127      1.0  0.77215  0.86504  0.36632  1.0000
  N   N84       1.0  0.74526  0.85705  0.36272  1.0000
  C   C128      1.0  0.78020  0.84569  0.37426  1.0000
  C   C129      1.0  0.70870  0.86685  0.34993  1.0000
  C   C130      1.0  0.80166  0.93861  0.35919  1.0000
  H   H45       1.0  0.82090  0.94345  0.36585  1.0000
  H   H46       1.0  0.70379  0.88041  0.32885  1.0000
  H   H47       1.0  0.76674  0.82754  0.39824  1.0000
  C   C131      1.0  0.87380  0.72423  0.35642  1.0000
  N   N85       1.0  0.86583  0.74316  0.35452  1.0000
  C   C132      1.0  0.88376  0.77027  0.35913  1.0000
  N   N86       1.0  0.91063  0.77820  0.36478  1.0000
  C   C133      1.0  0.91978  0.76023  0.36632  1.0000
  N   N87       1.0  0.90087  0.73333  0.36272  1.0000
  C   C134      1.0  0.94718  0.76828  0.37426  1.0000
  C   C135      1.0  0.85451  0.69677  0.34994  1.0000
  C   C136      1.0  0.87571  0.78973  0.35919  1.0000
  H   H48       1.0  0.89012  0.80898  0.36585  1.0000
  H   H49       1.0  0.83605  0.69187  0.32886  1.0000
  H   H50       1.0  0.95186  0.75481  0.39824  1.0000
  C   C137      1.0  0.88694  0.16346  0.35642  1.0000
  N   N88       1.0  0.91385  0.17143  0.35453  1.0000
  C   C138      1.0  0.92302  0.15350  0.35914  1.0000
  N   N89       1.0  0.90409  0.12663  0.36478  1.0000
  C   C139      1.0  0.87696  0.11748  0.36632  1.0000
  N   N90       1.0  0.86898  0.13639  0.36272  1.0000
  C   C140      1.0  0.85761  0.09007  0.37426  1.0000
  C   C141      1.0  0.87878  0.18275  0.34993  1.0000
  C   C142      1.0  0.95053  0.16154  0.35920  1.0000
  H   H51       1.0  0.95537  0.14713  0.36586  1.0000
  H   H52       1.0  0.89233  0.20121  0.32885  1.0000
  H   H53       1.0  0.83947  0.08539  0.39824  1.0000
  C   C143      1.0  0.77257  0.51784  0.35409  1.0000
  N   N91       1.0  0.74602  0.49732  0.35519  1.0000
  C   C144      1.0  0.73930  0.47074  0.35901  1.0000
  N   N92       1.0  0.76001  0.46560  0.36064  1.0000
  C   C145      1.0  0.78644  0.48474  0.35868  1.0000
  N   N93       1.0  0.79241  0.51101  0.35539  1.0000
  C   C146      1.0  0.80555  0.47601  0.35802  1.0000
  C   C147      1.0  0.77921  0.54491  0.34911  1.0000
  C   C148      1.0  0.71362  0.44712  0.36082  1.0000
  H   H54       1.0  0.71430  0.42960  0.36395  1.0000
  H   H55       1.0  0.76497  0.54904  0.32989  1.0000
  H   H56       1.0  0.82574  0.48967  0.35406  1.0000
  H   H57       1.0  0.60765  0.28544  0.36400  1.0000
  C   C149      1.0  0.78177  0.26469  0.35409  1.0000
  N   N94       1.0  0.78782  0.29123  0.35519  1.0000
  C   C150      1.0  0.76796  0.29796  0.35901  1.0000
  N   N95       1.0  0.74211  0.27725  0.36063  1.0000
  C   C151      1.0  0.73481  0.25082  0.35868  1.0000
  N   N96       1.0  0.75511  0.24484  0.35538  1.0000
  C   C152      1.0  0.70698  0.23171  0.35800  1.0000
  C   C153      1.0  0.80221  0.25805  0.34911  1.0000
  C   C154      1.0  0.77002  0.32364  0.36082  1.0000
  H   H58       1.0  0.75181  0.32296  0.36395  1.0000
  H   H59       1.0  0.82059  0.27229  0.32989  1.0000
  H   H60       1.0  0.70045  0.21152  0.35405  1.0000
  C   C155      1.0  0.61852  0.79532  0.43831  1.0000
  C   C156      1.0  0.64734  0.80975  0.43867  1.0000
  N   N97       1.0  0.66037  0.80231  0.50653  1.0000
  O   O63       1.0  0.67459  0.82155  0.56030  1.0000
  O   O64       1.0  0.67473  0.79370  0.47122  1.0000
  C   C157      1.0  0.81476  0.59187  0.37330  1.0000
  C   C158      1.0  0.83587  0.60659  0.43831  1.0000
  C   C159      1.0  0.85027  0.63542  0.43865  1.0000
  N   N98       1.0  0.84333  0.59344  0.50560  1.0000
  N   N99       1.0  0.87073  0.64845  0.50651  1.0000
  O   O65       1.0  0.85204  0.57924  0.46965  1.0000
  O   O66       1.0  0.86572  0.66267  0.56028  1.0000
  O   O67       1.0  0.82407  0.57901  0.55903  1.0000
  O   O68       1.0  0.89370  0.66281  0.47119  1.0000
  N   N100      1.0  0.80281  0.56466  0.37106  1.0000
  C   C160      1.0  0.81363  0.22250  0.37330  1.0000
  C   C161      1.0  0.80724  0.20139  0.43831  1.0000
  C   C162      1.0  0.82167  0.18699  0.43867  1.0000
  N   N101      1.0  0.78663  0.19394  0.50562  1.0000
  N   N102      1.0  0.81423  0.16653  0.50653  1.0000
  O   O69       1.0  0.76372  0.18522  0.46969  1.0000
  O   O70       1.0  0.83347  0.17155  0.56030  1.0000
  O   O71       1.0  0.79146  0.21320  0.55905  1.0000
  O   O72       1.0  0.80562  0.14356  0.47122  1.0000
  N   N103      1.0  0.79836  0.23445  0.37106  1.0000
  C   C163      1.0  0.81335  0.98509  0.34953  1.0000
  C   C164      1.0  0.81267  0.00076  0.42393  1.0000
  C   C165      1.0  0.82846  0.02924  0.42364  1.0000
  H   H61       1.0  0.82769  0.03969  0.47987  1.0000
  H   H62       1.0  0.80058  0.99138  0.47980  1.0000
  N   N104      1.0  0.79640  0.95807  0.35146  1.0000
  C   C166      1.0  0.00802  0.79995  0.42364  1.0000
  H   H63       1.0  0.99757  0.78874  0.47986  1.0000
  C   C167      1.0  0.84092  0.80143  0.34953  1.0000
  C   C168      1.0  0.82458  0.80075  0.42393  1.0000
  C   C169      1.0  0.81188  0.81654  0.42364  1.0000
  H   H64       1.0  0.80067  0.81577  0.47987  1.0000
  H   H65       1.0  0.82187  0.78865  0.47980  1.0000
  N   N105      1.0  0.85099  0.78448  0.35146  1.0000
  C   C170      1.0  0.99702  0.19634  0.34954  1.0000
  C   C171      1.0  0.01268  0.21268  0.42394  1.0000
  H   H66       1.0  0.00330  0.21540  0.47981  1.0000
  N   N106      1.0  0.97000  0.18626  0.35147  1.0000
  C   C172      1.0  0.79785  0.42597  0.36005  1.0000
  C   C173      1.0  0.77267  0.40217  0.36772  1.0000
  C   C174      1.0  0.77069  0.37670  0.36739  1.0000
  H   H67       1.0  0.75170  0.36044  0.37367  1.0000
  H   H68       1.0  0.75529  0.40316  0.37368  1.0000
  N   N107      1.0  0.79673  0.44914  0.36022  1.0000
  C   C175      1.0  0.61129  0.37262  0.36005  1.0000
  C   C176      1.0  0.63509  0.37125  0.36775  1.0000
  C   C177      1.0  0.66056  0.39474  0.36742  1.0000
  H   H69       1.0  0.67682  0.39200  0.37373  1.0000
  H   H70       1.0  0.63410  0.35288  0.37373  1.0000
  C   C178      1.0  0.66463  0.23941  0.36004  1.0000
  C   C179      1.0  0.66601  0.26459  0.36772  1.0000
  C   C180      1.0  0.64252  0.26657  0.36740  1.0000
  H   H71       1.0  0.64525  0.28556  0.37368  1.0000
  H   H72       1.0  0.68438  0.28197  0.37368  1.0000
  N   N108      1.0  0.68892  0.24053  0.36021  1.0000
