data_image0
_chemical_formula_structural       C2HC6H3C2HC6H3C2HC6H3C2NCNC2H3CH3C2NCNC2H3CH3C2NCNC2H3CH3C2NCNC2H3CH3C2NCNC2H3CH3C2NCNC2H3CH3CNCNCNC18H12CNCNCNC18H12CNCNCNC18H12CNCNCNC18H12CNCNCNC18H12CNCNCNC18H12C2NCNC2H3CH3C2NCNC2H3CH3C2NCNC2H3CH3C2HC6H3C2HC6H3C2HC6H3C2HC6H3C2HC6H3C2HC6H3
_chemical_formula_sum              "C252 H162 N36"
_cell_length_a       75.8582
_cell_length_b       75.8583
_cell_length_c       14.9989
_cell_angle_alpha    90
_cell_angle_beta     90
_cell_angle_gamma    120

_space_group_name_H-M_alt    "P 1"
_space_group_IT_number       1

loop_
  _space_group_symop_operation_xyz
  'x, y, z'

loop_
  _atom_site_type_symbol
  _atom_site_label
  _atom_site_symmetry_multiplicity
  _atom_site_fract_x
  _atom_site_fract_y
  _atom_site_fract_z
  _atom_site_occupancy
  C   C1        1.0  0.02170  0.51086  0.25037  1.0000
  C   C2        1.0  0.04316  0.52160  0.25351  1.0000
  H   H1        1.0  0.05128  0.52565  0.19513  1.0000
  C   C3        1.0  0.98931  0.49466  0.33171  1.0000
  C   C4        1.0  0.94654  0.47328  0.33422  1.0000
  C   C5        1.0  0.95707  0.47854  0.25205  1.0000
  C   C6        1.0  0.97855  0.48928  0.24967  1.0000
  C   C7        1.0  0.98949  0.49475  0.16864  1.0000
  C   C8        1.0  0.01090  0.50546  0.16899  1.0000
  H   H2        1.0  0.98197  0.49099  0.10886  1.0000
  H   H3        1.0  0.01851  0.50927  0.10946  1.0000
  H   H4        1.0  0.94904  0.47452  0.19346  1.0000
  C   C9        1.0  0.48923  0.51085  0.25037  1.0000
  C   C10       1.0  0.47850  0.52158  0.25351  1.0000
  H   H5        1.0  0.47443  0.52563  0.19513  1.0000
  C   C11       1.0  0.50543  0.49466  0.33171  1.0000
  C   C12       1.0  0.52682  0.47328  0.33421  1.0000
  C   C13       1.0  0.52155  0.47854  0.25205  1.0000
  C   C14       1.0  0.51081  0.48928  0.24967  1.0000
  C   C15       1.0  0.50534  0.49475  0.16864  1.0000
  C   C16       1.0  0.49463  0.50545  0.16899  1.0000
  H   H6        1.0  0.50910  0.49099  0.10886  1.0000
  H   H7        1.0  0.49082  0.50926  0.10946  1.0000
  H   H8        1.0  0.52557  0.47453  0.19346  1.0000
  C   C17       1.0  0.48924  0.97840  0.25037  1.0000
  C   C18       1.0  0.47851  0.95694  0.25351  1.0000
  H   H9        1.0  0.47445  0.94882  0.19513  1.0000
  C   C19       1.0  0.50543  0.01079  0.33171  1.0000
  C   C20       1.0  0.52681  0.05356  0.33421  1.0000
  C   C21       1.0  0.52154  0.04303  0.25205  1.0000
  C   C22       1.0  0.51081  0.02156  0.24967  1.0000
  C   C23       1.0  0.50534  0.01062  0.16864  1.0000
  C   C24       1.0  0.49464  0.98920  0.16899  1.0000
  H   H10       1.0  0.50910  0.01813  0.10886  1.0000
  H   H11       1.0  0.49083  0.98159  0.10946  1.0000
  H   H12       1.0  0.52556  0.05106  0.19346  1.0000
  C   C25       1.0  0.31176  0.53129  0.33080  1.0000
  C   C26       1.0  0.30070  0.52920  0.25125  1.0000
  N   N1        1.0  0.28172  0.52671  0.25784  1.0000
  C   C27       1.0  0.27225  0.52579  0.33596  1.0000
  N   N2        1.0  0.24490  0.52671  0.25894  1.0000
  C   C28       1.0  0.22848  0.52935  0.25361  1.0000
  C   C29       1.0  0.30867  0.53089  0.15965  1.0000
  H   H13       1.0  0.32374  0.53241  0.15829  1.0000
  H   H14       1.0  0.30957  0.54415  0.12672  1.0000
  H   H15       1.0  0.29838  0.51729  0.12183  1.0000
  C   C30       1.0  0.22137  0.53101  0.16374  1.0000
  H   H16       1.0  0.22995  0.52855  0.11149  1.0000
  H   H17       1.0  0.22323  0.54611  0.15443  1.0000
  H   H18       1.0  0.20532  0.51959  0.15615  1.0000
  C   C31       1.0  0.46882  0.78051  0.33081  1.0000
  C   C32       1.0  0.47093  0.77154  0.25131  1.0000
  N   N3        1.0  0.47341  0.75505  0.25787  1.0000
  C   C33       1.0  0.47434  0.74650  0.33597  1.0000
  N   N4        1.0  0.47341  0.71822  0.25895  1.0000
  C   C34       1.0  0.47076  0.69916  0.25364  1.0000
  C   C35       1.0  0.46920  0.77779  0.15969  1.0000
  H   H19       1.0  0.46768  0.79134  0.15829  1.0000
  H   H20       1.0  0.45594  0.76542  0.12686  1.0000
  H   H21       1.0  0.48280  0.78110  0.12180  1.0000
  C   C36       1.0  0.46909  0.69039  0.16376  1.0000
  H   H22       1.0  0.47155  0.70143  0.11152  1.0000
  H   H23       1.0  0.45398  0.67716  0.15445  1.0000
  H   H24       1.0  0.48050  0.68575  0.15615  1.0000
  C   C37       1.0  0.21960  0.68833  0.33088  1.0000
  C   C38       1.0  0.22857  0.69941  0.25137  1.0000
  N   N5        1.0  0.24505  0.71839  0.25793  1.0000
  C   C39       1.0  0.25360  0.72786  0.33603  1.0000
  N   N6        1.0  0.28187  0.75520  0.25901  1.0000
  C   C40       1.0  0.30094  0.77161  0.25367  1.0000
  C   C41       1.0  0.22233  0.69143  0.15973  1.0000
  H   H25       1.0  0.20878  0.67636  0.15831  1.0000
  H   H26       1.0  0.23470  0.69054  0.12692  1.0000
  H   H27       1.0  0.21902  0.70172  0.12182  1.0000
  C   C42       1.0  0.30971  0.77871  0.16379  1.0000
  H   H28       1.0  0.29867  0.77015  0.11155  1.0000
  H   H29       1.0  0.32294  0.77683  0.15446  1.0000
  H   H30       1.0  0.31436  0.79476  0.15620  1.0000
  C   C43       1.0  0.68835  0.46880  0.33094  1.0000
  C   C44       1.0  0.69943  0.47090  0.25142  1.0000
  N   N7        1.0  0.71841  0.47339  0.25799  1.0000
  C   C45       1.0  0.72788  0.47432  0.33611  1.0000
  N   N8        1.0  0.75522  0.47338  0.25911  1.0000
  C   C46       1.0  0.77163  0.47073  0.25379  1.0000
  C   C47       1.0  0.69146  0.46917  0.15979  1.0000
  H   H31       1.0  0.67639  0.46765  0.15835  1.0000
  H   H32       1.0  0.69056  0.45590  0.12698  1.0000
  H   H33       1.0  0.70175  0.48277  0.12188  1.0000
  C   C48       1.0  0.77873  0.46906  0.16390  1.0000
  H   H34       1.0  0.77016  0.47154  0.11167  1.0000
  H   H35       1.0  0.77685  0.45395  0.15457  1.0000
  H   H36       1.0  0.79478  0.48047  0.15631  1.0000
  C   C49       1.0  0.53129  0.21958  0.33086  1.0000
  C   C50       1.0  0.52921  0.22856  0.25132  1.0000
  N   N9        1.0  0.52671  0.24504  0.25790  1.0000
  C   C51       1.0  0.52578  0.25358  0.33602  1.0000
  N   N10       1.0  0.52671  0.28185  0.25900  1.0000
  C   C52       1.0  0.52935  0.30091  0.25367  1.0000
  C   C53       1.0  0.53090  0.22228  0.15971  1.0000
  H   H37       1.0  0.53242  0.20873  0.15835  1.0000
  H   H38       1.0  0.54416  0.23464  0.12679  1.0000
  H   H39       1.0  0.51730  0.21896  0.12188  1.0000
  C   C54       1.0  0.53102  0.30969  0.16381  1.0000
  H   H40       1.0  0.52856  0.29866  0.11155  1.0000
  H   H41       1.0  0.54612  0.32293  0.15451  1.0000
  H   H42       1.0  0.51960  0.31432  0.15620  1.0000
  C   C55       1.0  0.78054  0.31173  0.33081  1.0000
  C   C56       1.0  0.77157  0.30066  0.25131  1.0000
  N   N11       1.0  0.75508  0.28168  0.25789  1.0000
  C   C57       1.0  0.74653  0.27221  0.33600  1.0000
  N   N12       1.0  0.71825  0.24487  0.25901  1.0000
  C   C58       1.0  0.69919  0.22845  0.25371  1.0000
  C   C59       1.0  0.77782  0.30864  0.15970  1.0000
  H   H43       1.0  0.79137  0.32371  0.15831  1.0000
  H   H44       1.0  0.76545  0.30953  0.12686  1.0000
  H   H45       1.0  0.78113  0.29835  0.12180  1.0000
  C   C60       1.0  0.69042  0.22135  0.16384  1.0000
  H   H46       1.0  0.70145  0.22992  0.11159  1.0000
  H   H47       1.0  0.67718  0.22323  0.15454  1.0000
  H   H48       1.0  0.68577  0.20530  0.15622  1.0000
  C   C61       1.0  0.17177  0.60175  0.33174  1.0000
  N   N13       1.0  0.15108  0.59096  0.33262  1.0000
  C   C62       1.0  0.14031  0.57020  0.33345  1.0000
  N   N14       1.0  0.15111  0.56024  0.33346  1.0000
  C   C63       1.0  0.17180  0.57018  0.33271  1.0000
  N   N15       1.0  0.18144  0.59080  0.33186  1.0000
  C   C64       1.0  0.11858  0.55932  0.33420  1.0000
  C   C65       1.0  0.10737  0.56971  0.33446  1.0000
  C   C66       1.0  0.08596  0.55903  0.33503  1.0000
  C   C67       1.0  0.07510  0.53757  0.33545  1.0000
  C   C68       1.0  0.08597  0.52699  0.33515  1.0000
  C   C69       1.0  0.10739  0.53773  0.33460  1.0000
  C   C70       1.0  0.18332  0.62346  0.33093  1.0000
  C   C71       1.0  0.17396  0.63561  0.33414  1.0000
  C   C72       1.0  0.18567  0.65706  0.33419  1.0000
  C   C73       1.0  0.20710  0.66688  0.33032  1.0000
  C   C74       1.0  0.21658  0.65497  0.32686  1.0000
  C   C75       1.0  0.20489  0.63366  0.32725  1.0000
  C   C76       1.0  0.18340  0.56007  0.33295  1.0000
  C   C77       1.0  0.20498  0.57150  0.33403  1.0000
  C   C78       1.0  0.21673  0.56195  0.33442  1.0000
  C   C79       1.0  0.20730  0.54054  0.33351  1.0000
  C   C80       1.0  0.18585  0.52886  0.33243  1.0000
  C   C81       1.0  0.17409  0.53854  0.33221  1.0000
  H   H49       1.0  0.17849  0.66543  0.33687  1.0000
  H   H50       1.0  0.15845  0.62898  0.33703  1.0000
  H   H51       1.0  0.23213  0.66171  0.32433  1.0000
  H   H52       1.0  0.21252  0.62574  0.32478  1.0000
  H   H53       1.0  0.21259  0.58707  0.33469  1.0000
  H   H54       1.0  0.23228  0.57080  0.33515  1.0000
  H   H55       1.0  0.15857  0.52963  0.33138  1.0000
  H   H56       1.0  0.17871  0.51330  0.33177  1.0000
  H   H57       1.0  0.11469  0.52947  0.33441  1.0000
  H   H58       1.0  0.07840  0.51140  0.33545  1.0000
  H   H59       1.0  0.07837  0.56702  0.33523  1.0000
  H   H60       1.0  0.11466  0.58527  0.33420  1.0000
  C   C82       1.0  0.39834  0.57003  0.33181  1.0000
  N   N16       1.0  0.40912  0.56012  0.33267  1.0000
  C   C83       1.0  0.42989  0.57012  0.33348  1.0000
  N   N17       1.0  0.43985  0.59088  0.33348  1.0000
  C   C84       1.0  0.42991  0.60163  0.33274  1.0000
  N   N18       1.0  0.40929  0.59065  0.33191  1.0000
  C   C85       1.0  0.44076  0.55926  0.33422  1.0000
  C   C86       1.0  0.43038  0.53767  0.33448  1.0000
  C   C87       1.0  0.44106  0.52694  0.33503  1.0000
  C   C88       1.0  0.46252  0.53754  0.33545  1.0000
  C   C89       1.0  0.47310  0.55900  0.33515  1.0000
  C   C90       1.0  0.46235  0.56966  0.33461  1.0000
  C   C91       1.0  0.37663  0.55987  0.33101  1.0000
  C   C92       1.0  0.36447  0.53835  0.33421  1.0000
  C   C93       1.0  0.34303  0.52862  0.33421  1.0000
  C   C94       1.0  0.33320  0.54023  0.33035  1.0000
  C   C95       1.0  0.34512  0.56163  0.32691  1.0000
  C   C96       1.0  0.36643  0.57124  0.32733  1.0000
  C   C97       1.0  0.44002  0.62334  0.33297  1.0000
  C   C98       1.0  0.42859  0.63349  0.33406  1.0000
  C   C99       1.0  0.43814  0.65479  0.33443  1.0000
  C   C100      1.0  0.45955  0.66676  0.33349  1.0000
  C   C101      1.0  0.47123  0.65700  0.33240  1.0000
  C   C102      1.0  0.46155  0.63555  0.33219  1.0000
  H   H61       1.0  0.33465  0.51307  0.33684  1.0000
  H   H62       1.0  0.37111  0.52948  0.33706  1.0000
  H   H63       1.0  0.33838  0.57043  0.32437  1.0000
  H   H64       1.0  0.37435  0.58680  0.32487  1.0000
  H   H65       1.0  0.41302  0.62553  0.33475  1.0000
  H   H66       1.0  0.42929  0.66149  0.33518  1.0000
  H   H67       1.0  0.47046  0.62895  0.33134  1.0000
  H   H68       1.0  0.48679  0.66541  0.33172  1.0000
  H   H69       1.0  0.47062  0.58522  0.33442  1.0000
  H   H70       1.0  0.48869  0.56700  0.33544  1.0000
  H   H71       1.0  0.43307  0.51135  0.33524  1.0000
  H   H72       1.0  0.41482  0.52939  0.33423  1.0000
  C   C103      1.0  0.43007  0.82834  0.33176  1.0000
  N   N19       1.0  0.43997  0.84903  0.33263  1.0000
  C   C104      1.0  0.42997  0.85979  0.33343  1.0000
  N   N20       1.0  0.40920  0.84899  0.33341  1.0000
  C   C105      1.0  0.39846  0.82830  0.33266  1.0000
  N   N21       1.0  0.40945  0.81866  0.33185  1.0000
  C   C106      1.0  0.44082  0.88152  0.33419  1.0000
  C   C107      1.0  0.46241  0.89273  0.33446  1.0000
  C   C108      1.0  0.47315  0.91414  0.33503  1.0000
  C   C109      1.0  0.46255  0.92500  0.33545  1.0000
  C   C110      1.0  0.44109  0.91413  0.33515  1.0000
  C   C111      1.0  0.43042  0.89271  0.33458  1.0000
  C   C112      1.0  0.44022  0.81679  0.33099  1.0000
  C   C113      1.0  0.46174  0.82615  0.33412  1.0000
  C   C114      1.0  0.47148  0.81444  0.33415  1.0000
  C   C115      1.0  0.45987  0.79301  0.33037  1.0000
  C   C116      1.0  0.43847  0.78352  0.32698  1.0000
  C   C117      1.0  0.42886  0.79522  0.32738  1.0000
  C   C118      1.0  0.37675  0.81669  0.33289  1.0000
  C   C119      1.0  0.36661  0.79511  0.33395  1.0000
  C   C120      1.0  0.34530  0.78336  0.33436  1.0000
  C   C121      1.0  0.33333  0.79278  0.33346  1.0000
  C   C122      1.0  0.34309  0.81423  0.33241  1.0000
  C   C123      1.0  0.36453  0.82600  0.33216  1.0000
  H   H73       1.0  0.48703  0.82162  0.33674  1.0000
  H   H74       1.0  0.47061  0.84166  0.33693  1.0000
  H   H75       1.0  0.42967  0.76798  0.32448  1.0000
  H   H76       1.0  0.41330  0.78758  0.32495  1.0000
  H   H77       1.0  0.37457  0.78751  0.33460  1.0000
  H   H78       1.0  0.33861  0.76781  0.33510  1.0000
  H   H79       1.0  0.37112  0.84151  0.33135  1.0000
  H   H80       1.0  0.33467  0.82137  0.33179  1.0000
  H   H81       1.0  0.41486  0.88541  0.33439  1.0000
  H   H82       1.0  0.43308  0.92170  0.33543  1.0000
  H   H83       1.0  0.48873  0.92173  0.33524  1.0000
  H   H84       1.0  0.47069  0.88545  0.33421  1.0000
  C   C124      1.0  0.82834  0.39832  0.33155  1.0000
  N   N22       1.0  0.84903  0.40910  0.33207  1.0000
  C   C125      1.0  0.85979  0.42986  0.33267  1.0000
  N   N23       1.0  0.84899  0.43983  0.33283  1.0000
  C   C126      1.0  0.82830  0.42988  0.33242  1.0000
  N   N24       1.0  0.81867  0.40926  0.33178  1.0000
  C   C127      1.0  0.88153  0.44074  0.33306  1.0000
  C   C128      1.0  0.89274  0.43036  0.33315  1.0000
  C   C129      1.0  0.91415  0.44105  0.33345  1.0000
  C   C130      1.0  0.92501  0.46251  0.33383  1.0000
  C   C131      1.0  0.91413  0.47308  0.33356  1.0000
  C   C132      1.0  0.89272  0.46233  0.33327  1.0000
  C   C133      1.0  0.81680  0.37661  0.33091  1.0000
  C   C134      1.0  0.82617  0.36446  0.33401  1.0000
  C   C135      1.0  0.81446  0.34301  0.33409  1.0000
  C   C136      1.0  0.79303  0.33318  0.33042  1.0000
  C   C137      1.0  0.78353  0.34508  0.32710  1.0000
  C   C138      1.0  0.79523  0.36640  0.32745  1.0000
  C   C139      1.0  0.81670  0.43999  0.33277  1.0000
  C   C140      1.0  0.79512  0.42856  0.33397  1.0000
  C   C141      1.0  0.78337  0.43811  0.33447  1.0000
  C   C142      1.0  0.79281  0.45952  0.33353  1.0000
  C   C143      1.0  0.81425  0.47120  0.33235  1.0000
  C   C144      1.0  0.82602  0.46152  0.33201  1.0000
  H   H85       1.0  0.82165  0.33464  0.33661  1.0000
  H   H86       1.0  0.84167  0.37110  0.33671  1.0000
  H   H87       1.0  0.76799  0.33833  0.32465  1.0000
  H   H88       1.0  0.78758  0.37431  0.32503  1.0000
  H   H89       1.0  0.78751  0.41299  0.33465  1.0000
  H   H90       1.0  0.76782  0.42926  0.33529  1.0000
  H   H91       1.0  0.84153  0.47043  0.33111  1.0000
  H   H92       1.0  0.82140  0.48675  0.33169  1.0000
  H   H93       1.0  0.88542  0.47060  0.33316  1.0000
  H   H94       1.0  0.92171  0.48867  0.33375  1.0000
  H   H95       1.0  0.92174  0.43305  0.33357  1.0000
  H   H96       1.0  0.88546  0.41480  0.33299  1.0000
  C   C145      1.0  0.60177  0.43003  0.33150  1.0000
  N   N25       1.0  0.59098  0.43993  0.33203  1.0000
  C   C146      1.0  0.57022  0.42994  0.33267  1.0000
  N   N26       1.0  0.56026  0.40917  0.33287  1.0000
  C   C147      1.0  0.57020  0.39843  0.33248  1.0000
  N   N27       1.0  0.59082  0.40941  0.33179  1.0000
  C   C148      1.0  0.55935  0.44079  0.33307  1.0000
  C   C149      1.0  0.56973  0.46238  0.33314  1.0000
  C   C150      1.0  0.55905  0.47312  0.33344  1.0000
  C   C151      1.0  0.53759  0.46252  0.33383  1.0000
  C   C152      1.0  0.52701  0.44106  0.33357  1.0000
  C   C153      1.0  0.53776  0.43039  0.33328  1.0000
  C   C154      1.0  0.62348  0.44019  0.33083  1.0000
  C   C155      1.0  0.63563  0.46171  0.33399  1.0000
  C   C156      1.0  0.65708  0.47145  0.33411  1.0000
  C   C157      1.0  0.66691  0.45985  0.33037  1.0000
  C   C158      1.0  0.65500  0.43845  0.32697  1.0000
  C   C159      1.0  0.63369  0.42883  0.32729  1.0000
  C   C160      1.0  0.56009  0.37672  0.33286  1.0000
  C   C161      1.0  0.57152  0.36657  0.33408  1.0000
  C   C162      1.0  0.56196  0.34526  0.33454  1.0000
  C   C163      1.0  0.54055  0.33329  0.33357  1.0000
  C   C164      1.0  0.52888  0.34307  0.33238  1.0000
  C   C165      1.0  0.53856  0.36451  0.33207  1.0000
  H   H97       1.0  0.66544  0.48701  0.33674  1.0000
  H   H98       1.0  0.62899  0.47058  0.33679  1.0000
  H   H99       1.0  0.66175  0.42965  0.32451  1.0000
  H   H100      1.0  0.62577  0.41327  0.32483  1.0000
  H   H101      1.0  0.58709  0.37452  0.33476  1.0000
  H   H102      1.0  0.57081  0.33856  0.33534  1.0000
  H   H103      1.0  0.52965  0.37111  0.33114  1.0000
  H   H104      1.0  0.51332  0.33466  0.33167  1.0000
  H   H105      1.0  0.52949  0.41483  0.33319  1.0000
  H   H106      1.0  0.51142  0.43305  0.33377  1.0000
  H   H107      1.0  0.56704  0.48870  0.33355  1.0000
  H   H108      1.0  0.58529  0.47066  0.33297  1.0000
  C   C166      1.0  0.57005  0.17176  0.33158  1.0000
  N   N28       1.0  0.56015  0.15107  0.33209  1.0000
  C   C167      1.0  0.57015  0.14031  0.33271  1.0000
  N   N29       1.0  0.59091  0.15111  0.33290  1.0000
  C   C168      1.0  0.60166  0.17180  0.33252  1.0000
  N   N30       1.0  0.59068  0.18143  0.33185  1.0000
  C   C169      1.0  0.55929  0.11858  0.33309  1.0000
  C   C170      1.0  0.53770  0.10737  0.33316  1.0000
  C   C171      1.0  0.52697  0.08595  0.33345  1.0000
  C   C172      1.0  0.53756  0.07509  0.33383  1.0000
  C   C173      1.0  0.55903  0.08597  0.33357  1.0000
  C   C174      1.0  0.56969  0.10739  0.33329  1.0000
  C   C175      1.0  0.55990  0.18331  0.33092  1.0000
  C   C176      1.0  0.53838  0.17395  0.33407  1.0000
  C   C177      1.0  0.52864  0.18566  0.33415  1.0000
  C   C178      1.0  0.54024  0.20709  0.33041  1.0000
  C   C179      1.0  0.56164  0.21658  0.32703  1.0000
  C   C180      1.0  0.57126  0.20488  0.32739  1.0000
  C   C181      1.0  0.62337  0.18339  0.33289  1.0000
  C   C182      1.0  0.63352  0.20497  0.33413  1.0000
  C   C183      1.0  0.65483  0.21672  0.33459  1.0000
  C   C184      1.0  0.66679  0.20727  0.33359  1.0000
  C   C185      1.0  0.65702  0.18583  0.33235  1.0000
  C   C186      1.0  0.63558  0.17407  0.33206  1.0000
  H   H109      1.0  0.51309  0.17847  0.33673  1.0000
  H   H110      1.0  0.52951  0.15844  0.33683  1.0000
  H   H111      1.0  0.57044  0.23212  0.32456  1.0000
  H   H112      1.0  0.58682  0.21252  0.32493  1.0000
  H   H113      1.0  0.62557  0.21259  0.33484  1.0000
  H   H114      1.0  0.66153  0.23226  0.33541  1.0000
  H   H115      1.0  0.62897  0.15856  0.33111  1.0000
  H   H116      1.0  0.66543  0.17868  0.33161  1.0000
  H   H117      1.0  0.58525  0.11468  0.33320  1.0000
  H   H118      1.0  0.56703  0.07839  0.33377  1.0000
  H   H119      1.0  0.51138  0.07836  0.33357  1.0000
  H   H120      1.0  0.52942  0.11465  0.33300  1.0000
  C   C187      1.0  0.05357  0.52680  0.33600  1.0000
  C   C188      1.0  0.04198  0.52101  0.41597  1.0000
  N   N31       1.0  0.02134  0.51068  0.40991  1.0000
  C   C189      1.0  0.01080  0.50541  0.33204  1.0000
  N   N32       1.0  0.97865  0.48933  0.40929  1.0000
  C   C190      1.0  0.95800  0.47900  0.41447  1.0000
  C   C191      1.0  0.05047  0.52525  0.50743  1.0000
  H   H121      1.0  0.06706  0.53355  0.50859  1.0000
  H   H122      1.0  0.04519  0.51092  0.54296  1.0000
  H   H123      1.0  0.04518  0.53431  0.54294  1.0000
  C   C192      1.0  0.94861  0.47430  0.50417  1.0000
  H   H124      1.0  0.96014  0.48007  0.55662  1.0000
  H   H125      1.0  0.93916  0.45786  0.51241  1.0000
  H   H126      1.0  0.93916  0.48129  0.51244  1.0000
  C   C193      1.0  0.47329  0.52678  0.33600  1.0000
  C   C194      1.0  0.47909  0.52099  0.41597  1.0000
  N   N33       1.0  0.48941  0.51067  0.40991  1.0000
  C   C195      1.0  0.49468  0.50540  0.33204  1.0000
  N   N34       1.0  0.51076  0.48933  0.40929  1.0000
  C   C196      1.0  0.52109  0.47901  0.41447  1.0000
  C   C197      1.0  0.47484  0.52523  0.50743  1.0000
  H   H127      1.0  0.46654  0.53351  0.50859  1.0000
  H   H128      1.0  0.48917  0.53428  0.54296  1.0000
  H   H129      1.0  0.46579  0.51089  0.54294  1.0000
  C   C198      1.0  0.52579  0.47432  0.50417  1.0000
  H   H130      1.0  0.52003  0.48008  0.55662  1.0000
  H   H131      1.0  0.54223  0.48132  0.51241  1.0000
  H   H132      1.0  0.51880  0.45788  0.51244  1.0000
  C   C199      1.0  0.47330  0.94653  0.33600  1.0000
  C   C200      1.0  0.47910  0.95812  0.41597  1.0000
  N   N35       1.0  0.48942  0.97876  0.40991  1.0000
  C   C201      1.0  0.49469  0.98931  0.33204  1.0000
  N   N36       1.0  0.51076  0.02145  0.40929  1.0000
  C   C202      1.0  0.52108  0.04211  0.41447  1.0000
  C   C203      1.0  0.47486  0.94963  0.50743  1.0000
  H   H133      1.0  0.46657  0.93304  0.50859  1.0000
  H   H134      1.0  0.46581  0.95491  0.54296  1.0000
  H   H135      1.0  0.48920  0.95492  0.54294  1.0000
  C   C204      1.0  0.52577  0.05150  0.50417  1.0000
  H   H136      1.0  0.52001  0.03996  0.55662  1.0000
  H   H137      1.0  0.51877  0.06094  0.51241  1.0000
  H   H138      1.0  0.54221  0.06094  0.51243  1.0000
  C   C205      1.0  0.28240  0.52713  0.41731  1.0000
  C   C206      1.0  0.30216  0.52975  0.41360  1.0000
  H   H139      1.0  0.31027  0.53230  0.47154  1.0000
  C   C207      1.0  0.25367  0.52585  0.33653  1.0000
  C   C208      1.0  0.21988  0.53168  0.33370  1.0000
  C   C209      1.0  0.22814  0.53018  0.41596  1.0000
  C   C210      1.0  0.24516  0.52735  0.41849  1.0000
  C   C211      1.0  0.25482  0.52764  0.49941  1.0000
  C   C212      1.0  0.27329  0.52751  0.49883  1.0000
  H   H140      1.0  0.24904  0.52899  0.55906  1.0000
  H   H141      1.0  0.28053  0.52877  0.55808  1.0000
  H   H142      1.0  0.22282  0.53286  0.47424  1.0000
  C   C213      1.0  0.47298  0.75530  0.41731  1.0000
  C   C214      1.0  0.47033  0.77242  0.41357  1.0000
  H   H143      1.0  0.46780  0.77797  0.47155  1.0000
  C   C215      1.0  0.47427  0.72785  0.33652  1.0000
  C   C216      1.0  0.46841  0.68820  0.33369  1.0000
  C   C217      1.0  0.46989  0.69798  0.41591  1.0000
  C   C218      1.0  0.47275  0.71784  0.41847  1.0000
  C   C219      1.0  0.47248  0.72721  0.49942  1.0000
  C   C220      1.0  0.47263  0.74582  0.49885  1.0000
  H   H144      1.0  0.47106  0.72004  0.55904  1.0000
  H   H145      1.0  0.47129  0.75176  0.55806  1.0000
  H   H146      1.0  0.46723  0.68998  0.47424  1.0000
  C   C221      1.0  0.24478  0.71772  0.41737  1.0000
  C   C222      1.0  0.22764  0.69795  0.41365  1.0000
  H   H147      1.0  0.22212  0.68985  0.47160  1.0000
  C   C223      1.0  0.27224  0.74643  0.33659  1.0000
  C   C224      1.0  0.31189  0.78019  0.33378  1.0000
  C   C225      1.0  0.30212  0.77193  0.41602  1.0000
  C   C226      1.0  0.28225  0.75494  0.41856  1.0000
  C   C227      1.0  0.27288  0.74530  0.49949  1.0000
  C   C228      1.0  0.25427  0.72683  0.49890  1.0000
  H   H148      1.0  0.28003  0.75106  0.55912  1.0000
  H   H149      1.0  0.24829  0.71958  0.55812  1.0000
  H   H150      1.0  0.31012  0.77727  0.47433  1.0000
  C   C229      1.0  0.71774  0.47301  0.41745  1.0000
  C   C230      1.0  0.69797  0.47038  0.41371  1.0000
  H   H151      1.0  0.68987  0.46783  0.47164  1.0000
  C   C231      1.0  0.74645  0.47425  0.33669  1.0000
  C   C232      1.0  0.78022  0.46837  0.33390  1.0000
  C   C233      1.0  0.77195  0.46987  0.41611  1.0000
  C   C234      1.0  0.75496  0.47276  0.41865  1.0000
  C   C235      1.0  0.74532  0.47250  0.49957  1.0000
  C   C236      1.0  0.72686  0.47265  0.49898  1.0000
  H   H152      1.0  0.75110  0.47115  0.55923  1.0000
  H   H153      1.0  0.71962  0.47140  0.55822  1.0000
  H   H154      1.0  0.77731  0.46725  0.47442  1.0000
  C   C237      1.0  0.52712  0.24477  0.41737  1.0000
  C   C238      1.0  0.52975  0.22764  0.41367  1.0000
  H   H155      1.0  0.53230  0.22208  0.47160  1.0000
  C   C239      1.0  0.52584  0.27222  0.33659  1.0000
  C   C240      1.0  0.53169  0.31185  0.33377  1.0000
  C   C241      1.0  0.53017  0.30208  0.41603  1.0000
  C   C242      1.0  0.52734  0.28223  0.41855  1.0000
  C   C243      1.0  0.52763  0.27287  0.49948  1.0000
  C   C244      1.0  0.52749  0.25426  0.49890  1.0000
  H   H156      1.0  0.52897  0.27999  0.55912  1.0000
  H   H157      1.0  0.52875  0.24828  0.55814  1.0000
  H   H158      1.0  0.53286  0.31009  0.47431  1.0000
  C   C245      1.0  0.75534  0.28237  0.41735  1.0000
  C   C246      1.0  0.77246  0.30214  0.41360  1.0000
  H   H159      1.0  0.77802  0.31023  0.47157  1.0000
  C   C247      1.0  0.72789  0.25363  0.33657  1.0000
  C   C248      1.0  0.68823  0.21985  0.33377  1.0000
  C   C249      1.0  0.69801  0.22814  0.41599  1.0000
  C   C250      1.0  0.71787  0.24514  0.41853  1.0000
  C   C251      1.0  0.72725  0.25477  0.49947  1.0000
  C   C252      1.0  0.74586  0.27325  0.49889  1.0000
  H   H160      1.0  0.72009  0.24904  0.55910  1.0000
  H   H161      1.0  0.75180  0.28052  0.55809  1.0000
  H   H162      1.0  0.69002  0.22281  0.47431  1.0000
