data_image0
_chemical_formula_structural       C2HC2HN2C4HCNHCH3CHC4HCNHCH3CHC4H2C4H2N2CNC4H2CH3CHCNC4H2CH3CHC2HC2HN2C4HCNHCH3CHC4HCNHCH3CHC4H2C4H2N2CNC4H2CH3CHCNC4H2CH3CHC2HC2HN2C4HCNHCH3CHC4HCNHCH3CHC4H2C4H2N2CNC4H2CH3CHCNC4H2CH3CHC2HC2HN2C4HCNHCH3CHC4HCNHCH3CHC4H2C4H2N2CNC4H2CH3CHCNC4H2CH3CH
_chemical_formula_sum              "C160 H120 N32"
_cell_length_a       39.268
_cell_length_b       39.268
_cell_length_c       15.0563
_cell_angle_alpha    90
_cell_angle_beta     90
_cell_angle_gamma    90

_space_group_name_H-M_alt    "P 1"
_space_group_IT_number       1

loop_
  _space_group_symop_operation_xyz
  'x, y, z'

loop_
  _atom_site_type_symbol
  _atom_site_label
  _atom_site_symmetry_multiplicity
  _atom_site_fract_x
  _atom_site_fract_y
  _atom_site_fract_z
  _atom_site_occupancy
  C   C1        1.0  0.00384  0.04633  0.31640  1.0000
  C   C2        1.0  0.02897  0.07201  0.31283  1.0000
  H   H1        1.0  0.47933  0.05312  0.30312  1.0000
  C   C3        1.0  0.46838  0.42571  0.31272  1.0000
  C   C4        1.0  0.49359  0.45132  0.31098  1.0000
  H   H2        1.0  0.01717  0.44481  0.28839  1.0000
  N   N1        1.0  0.47390  0.39268  0.29197  1.0000
  N   N2        1.0  0.02238  0.10537  0.29815  1.0000
  C   C5        1.0  0.50008  0.33937  0.25403  1.0000
  C   C6        1.0  0.49829  0.26671  0.24422  1.0000
  C   C7        1.0  0.52939  0.28457  0.22554  1.0000
  C   C8        1.0  0.52945  0.32067  0.23083  1.0000
  H   H3        1.0  0.55161  0.33371  0.21924  1.0000
  C   C9        1.0  0.52368  0.17738  0.26530  1.0000
  N   N3        1.0  0.52212  0.21146  0.25485  1.0000
  H   H4        1.0  0.54711  0.16613  0.26882  1.0000
  C   C10       1.0  0.56169  0.26773  0.19753  1.0000
  H   H5        1.0  0.55682  0.25078  0.14151  1.0000
  H   H6        1.0  0.07230  0.25320  0.25272  1.0000
  H   H7        1.0  0.58123  0.28578  0.17632  1.0000
  C   C11       1.0  0.50146  0.37497  0.26467  1.0000
  H   H8        1.0  0.52411  0.38736  0.25577  1.0000
  C   C12       1.0  0.15954  0.49408  0.38064  1.0000
  C   C13       1.0  0.23161  0.49466  0.40776  1.0000
  C   C14       1.0  0.21364  0.46282  0.40412  1.0000
  C   C15       1.0  0.17784  0.46341  0.39111  1.0000
  H   H9        1.0  0.16469  0.44090  0.38828  1.0000
  C   C16       1.0  0.32164  0.47066  0.40277  1.0000
  N   N4        1.0  0.28733  0.47171  0.40359  1.0000
  H   H10       1.0  0.33322  0.44782  0.39077  1.0000
  C   C17       1.0  0.22984  0.42877  0.41622  1.0000
  H   H11       1.0  0.24678  0.42337  0.36055  1.0000
  H   H12       1.0  0.21145  0.90794  0.41949  1.0000
  H   H13       1.0  0.24425  0.42833  0.47817  1.0000
  C   C18       1.0  0.12410  0.49365  0.36662  1.0000
  H   H14       1.0  0.11170  0.47076  0.36547  1.0000
  C   C19       1.0  0.01202  0.01150  0.33033  1.0000
  C   C20       1.0  0.06329  0.06290  0.32501  1.0000
  C   C21       1.0  0.07270  0.02882  0.33979  1.0000
  C   C22       1.0  0.04708  0.00359  0.34130  1.0000
  H   H15       1.0  0.05410  0.47935  0.35690  1.0000
  H   H16       1.0  0.08171  0.08140  0.32339  1.0000
  C   C23       1.0  0.48634  0.48576  0.33321  1.0000
  C   C24       1.0  0.45221  0.49329  0.35789  1.0000
  C   C25       1.0  0.42665  0.46805  0.36088  1.0000
  C   C26       1.0  0.43508  0.43438  0.33824  1.0000
  H   H17       1.0  0.44589  0.01721  0.37828  1.0000
  H   H18       1.0  0.41659  0.41594  0.33948  1.0000
  N   N5        1.0  0.39368  0.47402  0.38142  1.0000
  N   N6        1.0  0.10622  0.02259  0.35300  1.0000
  C   C27       1.0  0.97000  0.32066  0.26826  1.0000
  N   N7        1.0  0.97083  0.28638  0.26359  1.0000
  C   C28       1.0  0.99347  0.23076  0.24961  1.0000
  C   C29       1.0  0.96172  0.21273  0.25535  1.0000
  C   C30       1.0  0.96253  0.17683  0.26615  1.0000
  C   C31       1.0  0.99335  0.15851  0.27261  1.0000
  H   H19       1.0  0.94008  0.16365  0.27085  1.0000
  H   H20       1.0  0.94756  0.33212  0.28511  1.0000
  C   C32       1.0  0.92756  0.22905  0.24747  1.0000
  H   H21       1.0  0.92279  0.24520  0.30510  1.0000
  H   H22       1.0  0.90672  0.21067  0.24408  1.0000
  H   H23       1.0  0.92640  0.24432  0.18700  1.0000
  C   C33       1.0  0.99320  0.12305  0.28631  1.0000
  H   H24       1.0  0.97038  0.11061  0.29022  1.0000
  C   C34       1.0  0.17835  0.02452  0.38535  1.0000
  N   N8        1.0  0.21233  0.02316  0.39809  1.0000
  C   C35       1.0  0.26749  0.99963  0.41594  1.0000
  C   C36       1.0  0.28521  0.03109  0.43106  1.0000
  C   C37       1.0  0.32137  0.03092  0.42971  1.0000
  C   C38       1.0  0.34027  0.00100  0.41349  1.0000
  H   H25       1.0  0.33434  0.05332  0.43839  1.0000
  H   H26       1.0  0.16711  0.04785  0.37886  1.0000
  C   C39       1.0  0.26815  0.06416  0.45077  1.0000
  H   H27       1.0  0.25045  0.06103  0.50607  1.0000
  H   H28       1.0  0.25439  0.07307  0.39227  1.0000
  H   H29       1.0  0.28597  0.08427  0.46949  1.0000
  C   C40       1.0  0.37597  0.00208  0.40489  1.0000
  H   H30       1.0  0.38833  0.02491  0.41039  1.0000
  C   C41       1.0  0.00384  0.54634  0.31640  1.0000
  C   C42       1.0  0.02897  0.57201  0.31283  1.0000
  H   H31       1.0  0.47933  0.55312  0.30312  1.0000
  C   C43       1.0  0.46838  0.92571  0.31272  1.0000
  C   C44       1.0  0.49359  0.95132  0.31098  1.0000
  H   H32       1.0  0.01717  0.94481  0.28839  1.0000
  N   N9        1.0  0.47390  0.89268  0.29197  1.0000
  N   N10       1.0  0.02238  0.60537  0.29815  1.0000
  C   C45       1.0  0.50008  0.83937  0.25403  1.0000
  C   C46       1.0  0.49829  0.76671  0.24422  1.0000
  C   C47       1.0  0.52939  0.78457  0.22554  1.0000
  C   C48       1.0  0.52945  0.82067  0.23083  1.0000
  H   H33       1.0  0.55161  0.83371  0.21924  1.0000
  C   C49       1.0  0.52368  0.67738  0.26530  1.0000
  N   N11       1.0  0.52212  0.71146  0.25485  1.0000
  H   H34       1.0  0.54711  0.66613  0.26882  1.0000
  C   C50       1.0  0.56169  0.76773  0.19753  1.0000
  H   H35       1.0  0.55682  0.75078  0.14151  1.0000
  H   H36       1.0  0.07230  0.75320  0.25272  1.0000
  H   H37       1.0  0.58123  0.78578  0.17632  1.0000
  C   C51       1.0  0.50146  0.87497  0.26467  1.0000
  H   H38       1.0  0.52411  0.88736  0.25577  1.0000
  C   C52       1.0  0.15954  0.99408  0.38064  1.0000
  C   C53       1.0  0.23161  0.99466  0.40776  1.0000
  C   C54       1.0  0.21364  0.96282  0.40412  1.0000
  C   C55       1.0  0.17784  0.96341  0.39111  1.0000
  H   H39       1.0  0.16469  0.94090  0.38828  1.0000
  C   C56       1.0  0.32164  0.97066  0.40277  1.0000
  N   N12       1.0  0.28733  0.97171  0.40359  1.0000
  H   H40       1.0  0.33322  0.94781  0.39077  1.0000
  C   C57       1.0  0.22984  0.92877  0.41622  1.0000
  H   H41       1.0  0.24678  0.92336  0.36055  1.0000
  H   H42       1.0  0.21145  0.40794  0.41949  1.0000
  H   H43       1.0  0.24425  0.92833  0.47817  1.0000
  C   C58       1.0  0.12410  0.99365  0.36662  1.0000
  H   H44       1.0  0.11170  0.97076  0.36547  1.0000
  C   C59       1.0  0.01202  0.51150  0.33033  1.0000
  C   C60       1.0  0.06329  0.56290  0.32501  1.0000
  C   C61       1.0  0.07270  0.52882  0.33979  1.0000
  C   C62       1.0  0.04708  0.50359  0.34130  1.0000
  H   H45       1.0  0.05410  0.97935  0.35690  1.0000
  H   H46       1.0  0.08171  0.58141  0.32339  1.0000
  C   C63       1.0  0.48634  0.98576  0.33321  1.0000
  C   C64       1.0  0.45221  0.99328  0.35789  1.0000
  C   C65       1.0  0.42665  0.96805  0.36088  1.0000
  C   C66       1.0  0.43508  0.93438  0.33824  1.0000
  H   H47       1.0  0.44589  0.51721  0.37828  1.0000
  H   H48       1.0  0.41659  0.91594  0.33948  1.0000
  N   N13       1.0  0.39368  0.97402  0.38142  1.0000
  N   N14       1.0  0.10622  0.52259  0.35300  1.0000
  C   C67       1.0  0.97000  0.82066  0.26826  1.0000
  N   N15       1.0  0.97083  0.78638  0.26359  1.0000
  C   C68       1.0  0.99347  0.73076  0.24961  1.0000
  C   C69       1.0  0.96172  0.71273  0.25535  1.0000
  C   C70       1.0  0.96253  0.67683  0.26615  1.0000
  C   C71       1.0  0.99335  0.65852  0.27261  1.0000
  H   H49       1.0  0.94008  0.66365  0.27085  1.0000
  H   H50       1.0  0.94756  0.83212  0.28511  1.0000
  C   C72       1.0  0.92756  0.72905  0.24747  1.0000
  H   H51       1.0  0.92279  0.74520  0.30510  1.0000
  H   H52       1.0  0.90672  0.71067  0.24408  1.0000
  H   H53       1.0  0.92640  0.74432  0.18700  1.0000
  C   C73       1.0  0.99320  0.62305  0.28631  1.0000
  H   H54       1.0  0.97038  0.61061  0.29022  1.0000
  C   C74       1.0  0.17835  0.52452  0.38535  1.0000
  N   N16       1.0  0.21233  0.52316  0.39809  1.0000
  C   C75       1.0  0.26749  0.49963  0.41594  1.0000
  C   C76       1.0  0.28521  0.53109  0.43106  1.0000
  C   C77       1.0  0.32137  0.53092  0.42971  1.0000
  C   C78       1.0  0.34027  0.50100  0.41349  1.0000
  H   H55       1.0  0.33434  0.55332  0.43839  1.0000
  H   H56       1.0  0.16711  0.54785  0.37886  1.0000
  C   C79       1.0  0.26815  0.56416  0.45077  1.0000
  H   H57       1.0  0.25045  0.56103  0.50607  1.0000
  H   H58       1.0  0.25439  0.57308  0.39227  1.0000
  H   H59       1.0  0.28597  0.58428  0.46949  1.0000
  C   C80       1.0  0.37597  0.50208  0.40489  1.0000
  H   H60       1.0  0.38833  0.52491  0.41039  1.0000
  C   C81       1.0  0.50384  0.04633  0.31640  1.0000
  C   C82       1.0  0.52897  0.07201  0.31283  1.0000
  H   H61       1.0  0.97933  0.05312  0.30312  1.0000
  C   C83       1.0  0.96838  0.42571  0.31272  1.0000
  C   C84       1.0  0.99359  0.45132  0.31098  1.0000
  H   H62       1.0  0.51717  0.44481  0.28839  1.0000
  N   N17       1.0  0.97390  0.39268  0.29197  1.0000
  N   N18       1.0  0.52238  0.10537  0.29815  1.0000
  C   C85       1.0  0.00008  0.33937  0.25403  1.0000
  C   C86       1.0  0.99829  0.26671  0.24422  1.0000
  C   C87       1.0  0.02939  0.28457  0.22554  1.0000
  C   C88       1.0  0.02945  0.32067  0.23083  1.0000
  H   H63       1.0  0.05161  0.33371  0.21924  1.0000
  C   C89       1.0  0.02368  0.17738  0.26530  1.0000
  N   N19       1.0  0.02212  0.21146  0.25485  1.0000
  H   H64       1.0  0.04711  0.16613  0.26882  1.0000
  C   C90       1.0  0.06169  0.26773  0.19753  1.0000
  H   H65       1.0  0.05682  0.25078  0.14151  1.0000
  H   H66       1.0  0.57230  0.25320  0.25272  1.0000
  H   H67       1.0  0.08123  0.28578  0.17632  1.0000
  C   C91       1.0  0.00146  0.37497  0.26467  1.0000
  H   H68       1.0  0.02411  0.38736  0.25577  1.0000
  C   C92       1.0  0.65954  0.49408  0.38064  1.0000
  C   C93       1.0  0.73161  0.49466  0.40776  1.0000
  C   C94       1.0  0.71364  0.46282  0.40412  1.0000
  C   C95       1.0  0.67784  0.46341  0.39111  1.0000
  H   H69       1.0  0.66469  0.44090  0.38828  1.0000
  C   C96       1.0  0.82164  0.47066  0.40277  1.0000
  N   N20       1.0  0.78733  0.47171  0.40359  1.0000
  H   H70       1.0  0.83322  0.44782  0.39077  1.0000
  C   C97       1.0  0.72984  0.42877  0.41622  1.0000
  H   H71       1.0  0.74678  0.42337  0.36055  1.0000
  H   H72       1.0  0.71145  0.90794  0.41949  1.0000
  H   H73       1.0  0.74425  0.42833  0.47817  1.0000
  C   C98       1.0  0.62410  0.49365  0.36662  1.0000
  H   H74       1.0  0.61170  0.47076  0.36547  1.0000
  C   C99       1.0  0.51202  0.01150  0.33033  1.0000
  C   C100      1.0  0.56329  0.06290  0.32501  1.0000
  C   C101      1.0  0.57270  0.02882  0.33979  1.0000
  C   C102      1.0  0.54707  0.00359  0.34130  1.0000
  H   H75       1.0  0.55410  0.47935  0.35690  1.0000
  H   H76       1.0  0.58171  0.08140  0.32339  1.0000
  C   C103      1.0  0.98634  0.48576  0.33321  1.0000
  C   C104      1.0  0.95221  0.49329  0.35789  1.0000
  C   C105      1.0  0.92665  0.46805  0.36088  1.0000
  C   C106      1.0  0.93508  0.43438  0.33824  1.0000
  H   H77       1.0  0.94589  0.01721  0.37828  1.0000
  H   H78       1.0  0.91659  0.41594  0.33948  1.0000
  N   N21       1.0  0.89369  0.47402  0.38142  1.0000
  N   N22       1.0  0.60622  0.02259  0.35300  1.0000
  C   C107      1.0  0.47000  0.32066  0.26826  1.0000
  N   N23       1.0  0.47083  0.28638  0.26359  1.0000
  C   C108      1.0  0.49347  0.23076  0.24961  1.0000
  C   C109      1.0  0.46172  0.21273  0.25535  1.0000
  C   C110      1.0  0.46253  0.17683  0.26615  1.0000
  C   C111      1.0  0.49335  0.15851  0.27261  1.0000
  H   H79       1.0  0.44007  0.16365  0.27085  1.0000
  H   H80       1.0  0.44756  0.33212  0.28511  1.0000
  C   C112      1.0  0.42756  0.22905  0.24747  1.0000
  H   H81       1.0  0.42279  0.24520  0.30510  1.0000
  H   H82       1.0  0.40672  0.21067  0.24408  1.0000
  H   H83       1.0  0.42640  0.24432  0.18700  1.0000
  C   C113      1.0  0.49320  0.12305  0.28631  1.0000
  H   H84       1.0  0.47038  0.11061  0.29022  1.0000
  C   C114      1.0  0.67835  0.02452  0.38535  1.0000
  N   N24       1.0  0.71233  0.02316  0.39809  1.0000
  C   C115      1.0  0.76748  0.99963  0.41594  1.0000
  C   C116      1.0  0.78521  0.03109  0.43106  1.0000
  C   C117      1.0  0.82137  0.03092  0.42971  1.0000
  C   C118      1.0  0.84027  0.00100  0.41349  1.0000
  H   H85       1.0  0.83434  0.05332  0.43839  1.0000
  H   H86       1.0  0.66710  0.04785  0.37886  1.0000
  C   C119      1.0  0.76814  0.06416  0.45077  1.0000
  H   H87       1.0  0.75045  0.06103  0.50607  1.0000
  H   H88       1.0  0.75439  0.07307  0.39227  1.0000
  H   H89       1.0  0.78597  0.08427  0.46949  1.0000
  C   C120      1.0  0.87597  0.00208  0.40489  1.0000
  H   H90       1.0  0.88833  0.02491  0.41039  1.0000
  C   C121      1.0  0.50384  0.54634  0.31640  1.0000
  C   C122      1.0  0.52897  0.57201  0.31283  1.0000
  H   H91       1.0  0.97933  0.55312  0.30312  1.0000
  C   C123      1.0  0.96838  0.92571  0.31272  1.0000
  C   C124      1.0  0.99359  0.95132  0.31098  1.0000
  H   H92       1.0  0.51717  0.94481  0.28839  1.0000
  N   N25       1.0  0.97390  0.89268  0.29197  1.0000
  N   N26       1.0  0.52238  0.60537  0.29815  1.0000
  C   C125      1.0  0.00008  0.83937  0.25403  1.0000
  C   C126      1.0  0.99829  0.76671  0.24422  1.0000
  C   C127      1.0  0.02939  0.78457  0.22554  1.0000
  C   C128      1.0  0.02945  0.82067  0.23083  1.0000
  H   H93       1.0  0.05161  0.83371  0.21924  1.0000
  C   C129      1.0  0.02368  0.67738  0.26530  1.0000
  N   N27       1.0  0.02212  0.71146  0.25485  1.0000
  H   H94       1.0  0.04711  0.66613  0.26882  1.0000
  C   C130      1.0  0.06169  0.76773  0.19753  1.0000
  H   H95       1.0  0.05682  0.75078  0.14151  1.0000
  H   H96       1.0  0.57230  0.75320  0.25272  1.0000
  H   H97       1.0  0.08123  0.78578  0.17632  1.0000
  C   C131      1.0  0.00146  0.87497  0.26467  1.0000
  H   H98       1.0  0.02411  0.88736  0.25577  1.0000
  C   C132      1.0  0.65954  0.99408  0.38064  1.0000
  C   C133      1.0  0.73161  0.99466  0.40776  1.0000
  C   C134      1.0  0.71364  0.96282  0.40412  1.0000
  C   C135      1.0  0.67784  0.96341  0.39111  1.0000
  H   H99       1.0  0.66469  0.94090  0.38828  1.0000
  C   C136      1.0  0.82164  0.97066  0.40277  1.0000
  N   N28       1.0  0.78733  0.97171  0.40359  1.0000
  H   H100      1.0  0.83322  0.94781  0.39077  1.0000
  C   C137      1.0  0.72984  0.92877  0.41622  1.0000
  H   H101      1.0  0.74678  0.92336  0.36055  1.0000
  H   H102      1.0  0.71145  0.40794  0.41949  1.0000
  H   H103      1.0  0.74425  0.92833  0.47817  1.0000
  C   C138      1.0  0.62410  0.99365  0.36662  1.0000
  H   H104      1.0  0.61170  0.97076  0.36547  1.0000
  C   C139      1.0  0.51202  0.51150  0.33033  1.0000
  C   C140      1.0  0.56329  0.56290  0.32501  1.0000
  C   C141      1.0  0.57270  0.52882  0.33979  1.0000
  C   C142      1.0  0.54707  0.50359  0.34130  1.0000
  H   H105      1.0  0.55410  0.97935  0.35690  1.0000
  H   H106      1.0  0.58171  0.58141  0.32339  1.0000
  C   C143      1.0  0.98634  0.98576  0.33321  1.0000
  C   C144      1.0  0.95221  0.99328  0.35789  1.0000
  C   C145      1.0  0.92665  0.96805  0.36088  1.0000
  C   C146      1.0  0.93508  0.93438  0.33824  1.0000
  H   H107      1.0  0.94589  0.51721  0.37828  1.0000
  H   H108      1.0  0.91659  0.91594  0.33948  1.0000
  N   N29       1.0  0.89369  0.97402  0.38142  1.0000
  N   N30       1.0  0.60622  0.52259  0.35300  1.0000
  C   C147      1.0  0.47000  0.82066  0.26826  1.0000
  N   N31       1.0  0.47083  0.78638  0.26359  1.0000
  C   C148      1.0  0.49347  0.73076  0.24961  1.0000
  C   C149      1.0  0.46172  0.71273  0.25535  1.0000
  C   C150      1.0  0.46253  0.67683  0.26615  1.0000
  C   C151      1.0  0.49335  0.65852  0.27261  1.0000
  H   H109      1.0  0.44007  0.66365  0.27085  1.0000
  H   H110      1.0  0.44756  0.83212  0.28511  1.0000
  C   C152      1.0  0.42756  0.72905  0.24747  1.0000
  H   H111      1.0  0.42279  0.74520  0.30510  1.0000
  H   H112      1.0  0.40672  0.71067  0.24408  1.0000
  H   H113      1.0  0.42640  0.74432  0.18700  1.0000
  C   C153      1.0  0.49320  0.62305  0.28631  1.0000
  H   H114      1.0  0.47038  0.61061  0.29022  1.0000
  C   C154      1.0  0.67835  0.52452  0.38535  1.0000
  N   N32       1.0  0.71233  0.52316  0.39809  1.0000
  C   C155      1.0  0.76748  0.49963  0.41594  1.0000
  C   C156      1.0  0.78521  0.53109  0.43106  1.0000
  C   C157      1.0  0.82137  0.53092  0.42971  1.0000
  C   C158      1.0  0.84027  0.50100  0.41349  1.0000
  H   H115      1.0  0.83434  0.55332  0.43839  1.0000
  H   H116      1.0  0.66710  0.54785  0.37886  1.0000
  C   C159      1.0  0.76814  0.56416  0.45077  1.0000
  H   H117      1.0  0.75045  0.56103  0.50607  1.0000
  H   H118      1.0  0.75439  0.57308  0.39227  1.0000
  H   H119      1.0  0.78597  0.58428  0.46949  1.0000
  C   C160      1.0  0.87597  0.50208  0.40489  1.0000
  H   H120      1.0  0.88833  0.52491  0.41039  1.0000
