data_image0
_chemical_formula_structural       C14H9C6H3CH3NHCH3CH3C11H7C2O4C3H2NHC5H2CNHNHC14H9C6H3CH3NHCH3CH3C11H7C2O4C3H2NHC5H2CNHNHC14H9C6H3CH3NHCH3CH3C11H7C2O4C3H2NHC5H2CNHNHC14H9C6H3CH3NHCH3CH3C11H7C2O4C3H2NHC5H2CNHNH
_chemical_formula_sum              "C180 H144 N16 O16"
_cell_length_a       30.9196
_cell_length_b       30.9196
_cell_length_c       15.0125
_cell_angle_alpha    90
_cell_angle_beta     90
_cell_angle_gamma    90

_space_group_name_H-M_alt    "P 1"
_space_group_IT_number       1

loop_
  _space_group_symop_operation_xyz
  'x, y, z'

loop_
  _atom_site_type_symbol
  _atom_site_label
  _atom_site_symmetry_multiplicity
  _atom_site_fract_x
  _atom_site_fract_y
  _atom_site_fract_z
  _atom_site_occupancy
  C   C1        1.0  0.00335  0.10208  0.26892  1.0000
  C   C2        1.0  0.46414  0.08144  0.24555  1.0000
  C   C3        1.0  0.46253  0.05085  0.17643  1.0000
  C   C4        1.0  0.99991  0.03880  0.12720  1.0000
  C   C5        1.0  0.03932  0.05862  0.15326  1.0000
  C   C6        1.0  0.04095  0.08967  0.22153  1.0000
  C   C7        1.0  0.49827  0.49996  0.06423  1.0000
  C   C8        1.0  0.49437  0.46353  0.13264  1.0000
  C   C9        1.0  0.03007  0.45315  0.18840  1.0000
  C   C10       1.0  0.02642  0.42400  0.25975  1.0000
  C   C11       1.0  0.48661  0.40362  0.27918  1.0000
  C   C12       1.0  0.45036  0.41503  0.22670  1.0000
  C   C13       1.0  0.45414  0.44446  0.15577  1.0000
  C   C14       1.0  0.03721  0.49566  0.00202  1.0000
  H   H1        1.0  0.04712  0.42770  0.01414  1.0000
  H   H2        1.0  0.42650  0.45248  0.12239  1.0000
  H   H3        1.0  0.42079  0.40118  0.23786  1.0000
  H   H4        1.0  0.05333  0.41784  0.29730  1.0000
  H   H5        1.0  0.05949  0.46740  0.17795  1.0000
  H   H6        1.0  0.06797  0.04961  0.12497  1.0000
  H   H7        1.0  0.43350  0.03621  0.16386  1.0000
  H   H8        1.0  0.43618  0.08769  0.27945  1.0000
  H   H9        1.0  0.07033  0.10325  0.23572  1.0000
  C   C15       1.0  0.48353  0.36916  0.34218  1.0000
  C   C16       1.0  0.00535  0.13646  0.33266  1.0000
  C   C17       1.0  0.47977  0.20742  0.34311  1.0000
  C   C18       1.0  0.48213  0.22994  0.26018  1.0000
  C   C19       1.0  0.49534  0.27426  0.25954  1.0000
  C   C20       1.0  0.47196  0.20750  0.17415  1.0000
  H   H10       1.0  0.46005  0.17464  0.18154  1.0000
  H   H11       1.0  0.00092  0.20586  0.13280  1.0000
  H   H12       1.0  0.44687  0.22522  0.13839  1.0000
  C   C21       1.0  0.50014  0.29772  0.17266  1.0000
  H   H13       1.0  0.51268  0.33042  0.17848  1.0000
  H   H14       1.0  0.46880  0.29999  0.13961  1.0000
  H   H15       1.0  0.02260  0.28038  0.12951  1.0000
  N   N1        1.0  0.47159  0.16403  0.34783  1.0000
  H   H16       1.0  0.44314  0.15625  0.32581  1.0000
  C   C22       1.0  0.29359  0.47327  0.26453  1.0000
  H   H17       1.0  0.32798  0.46620  0.27141  1.0000
  H   H18       1.0  0.29063  0.49984  0.21711  1.0000
  H   H19       1.0  0.27828  0.44452  0.23659  1.0000
  C   C23       1.0  0.20008  0.49429  0.27044  1.0000
  H   H20       1.0  0.16639  0.50329  0.28127  1.0000
  H   H21       1.0  0.20024  0.46173  0.24243  1.0000
  H   H22       1.0  0.21318  0.01678  0.22138  1.0000
  C   C24       1.0  0.46169  0.00180  0.66242  1.0000
  C   C25       1.0  0.05680  0.45525  0.64902  1.0000
  C   C26       1.0  0.08888  0.45106  0.58326  1.0000
  C   C27       1.0  0.10260  0.48694  0.53197  1.0000
  C   C28       1.0  0.08196  0.02701  0.54834  1.0000
  C   C29       1.0  0.05016  0.03113  0.61472  1.0000
  C   C30       1.0  0.44321  0.04139  0.63331  1.0000
  C   C31       1.0  0.41400  0.04319  0.56166  1.0000
  C   C32       1.0  0.40210  0.00549  0.51417  1.0000
  C   C33       1.0  0.42153  0.46608  0.54032  1.0000
  C   C34       1.0  0.45060  0.46441  0.61227  1.0000
  H   H23       1.0  0.10227  0.42114  0.57382  1.0000
  H   H24       1.0  0.08898  0.05368  0.51083  1.0000
  H   H25       1.0  0.03567  0.06063  0.62229  1.0000
  H   H26       1.0  0.45178  0.07002  0.66229  1.0000
  H   H27       1.0  0.40115  0.07265  0.54537  1.0000
  H   H28       1.0  0.41546  0.43810  0.50621  1.0000
  H   H29       1.0  0.46451  0.43526  0.62692  1.0000
  C   C35       1.0  0.13729  0.48235  0.46950  1.0000
  C   C36       1.0  0.36959  0.00756  0.44650  1.0000
  O   O1        1.0  0.36097  0.04671  0.40973  1.0000
  O   O2        1.0  0.04498  0.14885  0.36205  1.0000
  O   O3        1.0  0.14792  0.44181  0.44262  1.0000
  O   O4        1.0  0.44379  0.35920  0.37450  1.0000
  C   C37       1.0  0.00360  0.29560  0.34216  1.0000
  C   C38       1.0  0.99990  0.27298  0.42315  1.0000
  C   C39       1.0  0.98857  0.22915  0.42353  1.0000
  H   H30       1.0  0.98708  0.21299  0.48298  1.0000
  H   H31       1.0  0.00617  0.28818  0.48235  1.0000
  N   N2        1.0  0.01495  0.33815  0.34629  1.0000
  H   H32       1.0  0.04287  0.34445  0.31921  1.0000
  C   C40       1.0  0.20756  0.00679  0.43612  1.0000
  C   C41       1.0  0.23287  0.00816  0.51414  1.0000
  C   C42       1.0  0.27665  0.99758  0.51155  1.0000
  C   C43       1.0  0.29672  0.48633  0.43052  1.0000
  C   C44       1.0  0.27215  0.48519  0.35027  1.0000
  H   H33       1.0  0.29396  0.99811  0.56973  1.0000
  H   H34       1.0  0.21916  0.01577  0.57426  1.0000
  C   C45       1.0  0.22691  0.49540  0.35317  1.0000
  N   N3        1.0  0.33950  0.47563  0.43602  1.0000
  H   H35       1.0  0.34463  0.44838  0.46681  1.0000
  N   N4        1.0  0.16448  0.01547  0.44725  1.0000
  H   H36       1.0  0.15881  0.04381  0.47277  1.0000
  C   C46       1.0  0.00335  0.60208  0.26892  1.0000
  C   C47       1.0  0.46414  0.58144  0.24555  1.0000
  C   C48       1.0  0.46253  0.55085  0.17643  1.0000
  C   C49       1.0  0.99991  0.53880  0.12720  1.0000
  C   C50       1.0  0.03932  0.55862  0.15326  1.0000
  C   C51       1.0  0.04095  0.58967  0.22153  1.0000
  C   C52       1.0  0.49827  0.99996  0.06423  1.0000
  C   C53       1.0  0.49437  0.96353  0.13264  1.0000
  C   C54       1.0  0.03007  0.95315  0.18840  1.0000
  C   C55       1.0  0.02642  0.92400  0.25975  1.0000
  C   C56       1.0  0.48661  0.90362  0.27918  1.0000
  C   C57       1.0  0.45036  0.91504  0.22670  1.0000
  C   C58       1.0  0.45414  0.94446  0.15577  1.0000
  C   C59       1.0  0.03721  0.99566  0.00202  1.0000
  H   H37       1.0  0.04712  0.92770  0.01414  1.0000
  H   H38       1.0  0.42650  0.95248  0.12239  1.0000
  H   H39       1.0  0.42079  0.90118  0.23786  1.0000
  H   H40       1.0  0.05333  0.91784  0.29730  1.0000
  H   H41       1.0  0.05949  0.96740  0.17795  1.0000
  H   H42       1.0  0.06797  0.54961  0.12497  1.0000
  H   H43       1.0  0.43350  0.53620  0.16386  1.0000
  H   H44       1.0  0.43618  0.58769  0.27945  1.0000
  H   H45       1.0  0.07033  0.60325  0.23572  1.0000
  C   C60       1.0  0.48353  0.86916  0.34218  1.0000
  C   C61       1.0  0.00535  0.63646  0.33266  1.0000
  C   C62       1.0  0.47977  0.70742  0.34311  1.0000
  C   C63       1.0  0.48213  0.72994  0.26018  1.0000
  C   C64       1.0  0.49534  0.77426  0.25954  1.0000
  C   C65       1.0  0.47196  0.70750  0.17415  1.0000
  H   H46       1.0  0.46005  0.67464  0.18154  1.0000
  H   H47       1.0  0.00092  0.70585  0.13280  1.0000
  H   H48       1.0  0.44687  0.72521  0.13839  1.0000
  C   C66       1.0  0.50014  0.79771  0.17266  1.0000
  H   H49       1.0  0.51268  0.83041  0.17848  1.0000
  H   H50       1.0  0.46880  0.79999  0.13961  1.0000
  H   H51       1.0  0.02260  0.78038  0.12951  1.0000
  N   N5        1.0  0.47159  0.66403  0.34783  1.0000
  H   H52       1.0  0.44314  0.65625  0.32581  1.0000
  C   C67       1.0  0.29359  0.97326  0.26453  1.0000
  H   H53       1.0  0.32798  0.96619  0.27141  1.0000
  H   H54       1.0  0.29063  0.99984  0.21711  1.0000
  H   H55       1.0  0.27828  0.94452  0.23659  1.0000
  C   C68       1.0  0.20008  0.99429  0.27044  1.0000
  H   H56       1.0  0.16639  0.00329  0.28127  1.0000
  H   H57       1.0  0.20024  0.96173  0.24243  1.0000
  H   H58       1.0  0.21318  0.51678  0.22138  1.0000
  C   C69       1.0  0.46169  0.50180  0.66242  1.0000
  C   C70       1.0  0.05680  0.95525  0.64902  1.0000
  C   C71       1.0  0.08888  0.95107  0.58326  1.0000
  C   C72       1.0  0.10260  0.98694  0.53197  1.0000
  C   C73       1.0  0.08196  0.52701  0.54834  1.0000
  C   C74       1.0  0.05016  0.53113  0.61472  1.0000
  C   C75       1.0  0.44321  0.54139  0.63331  1.0000
  C   C76       1.0  0.41400  0.54319  0.56166  1.0000
  C   C77       1.0  0.40210  0.50549  0.51417  1.0000
  C   C78       1.0  0.42153  0.96608  0.54032  1.0000
  C   C79       1.0  0.45060  0.96441  0.61227  1.0000
  H   H59       1.0  0.10227  0.92114  0.57382  1.0000
  H   H60       1.0  0.08898  0.55368  0.51083  1.0000
  H   H61       1.0  0.03567  0.56063  0.62229  1.0000
  H   H62       1.0  0.45178  0.57002  0.66229  1.0000
  H   H63       1.0  0.40115  0.57264  0.54537  1.0000
  H   H64       1.0  0.41546  0.93810  0.50621  1.0000
  H   H65       1.0  0.46451  0.93526  0.62692  1.0000
  C   C80       1.0  0.13729  0.98235  0.46950  1.0000
  C   C81       1.0  0.36959  0.50756  0.44650  1.0000
  O   O5        1.0  0.36097  0.54671  0.40973  1.0000
  O   O6        1.0  0.04498  0.64885  0.36205  1.0000
  O   O7        1.0  0.14792  0.94181  0.44262  1.0000
  O   O8        1.0  0.44379  0.85919  0.37450  1.0000
  C   C82       1.0  0.00360  0.79560  0.34216  1.0000
  C   C83       1.0  0.99990  0.77298  0.42315  1.0000
  C   C84       1.0  0.98857  0.72915  0.42353  1.0000
  H   H66       1.0  0.98708  0.71299  0.48298  1.0000
  H   H67       1.0  0.00617  0.78818  0.48235  1.0000
  N   N6        1.0  0.01495  0.83815  0.34629  1.0000
  H   H68       1.0  0.04287  0.84445  0.31921  1.0000
  C   C85       1.0  0.20756  0.50679  0.43612  1.0000
  C   C86       1.0  0.23287  0.50816  0.51414  1.0000
  C   C87       1.0  0.27665  0.49758  0.51155  1.0000
  C   C88       1.0  0.29672  0.98633  0.43052  1.0000
  C   C89       1.0  0.27215  0.98519  0.35027  1.0000
  H   H69       1.0  0.29396  0.49811  0.56973  1.0000
  H   H70       1.0  0.21916  0.51577  0.57426  1.0000
  C   C90       1.0  0.22691  0.99540  0.35317  1.0000
  N   N7        1.0  0.33950  0.97563  0.43602  1.0000
  H   H71       1.0  0.34463  0.94837  0.46681  1.0000
  N   N8        1.0  0.16448  0.51547  0.44725  1.0000
  H   H72       1.0  0.15881  0.54381  0.47277  1.0000
  C   C91       1.0  0.50335  0.10208  0.26892  1.0000
  C   C92       1.0  0.96414  0.08144  0.24555  1.0000
  C   C93       1.0  0.96253  0.05085  0.17643  1.0000
  C   C94       1.0  0.49991  0.03880  0.12720  1.0000
  C   C95       1.0  0.53932  0.05862  0.15326  1.0000
  C   C96       1.0  0.54095  0.08967  0.22153  1.0000
  C   C97       1.0  0.99827  0.49996  0.06423  1.0000
  C   C98       1.0  0.99437  0.46353  0.13264  1.0000
  C   C99       1.0  0.53007  0.45315  0.18840  1.0000
  C   C100      1.0  0.52641  0.42400  0.25975  1.0000
  C   C101      1.0  0.98662  0.40362  0.27918  1.0000
  C   C102      1.0  0.95037  0.41503  0.22670  1.0000
  C   C103      1.0  0.95413  0.44446  0.15577  1.0000
  C   C104      1.0  0.53721  0.49566  0.00202  1.0000
  H   H73       1.0  0.54712  0.42770  0.01414  1.0000
  H   H74       1.0  0.92650  0.45248  0.12239  1.0000
  H   H75       1.0  0.92080  0.40118  0.23786  1.0000
  H   H76       1.0  0.55333  0.41784  0.29730  1.0000
  H   H77       1.0  0.55949  0.46740  0.17795  1.0000
  H   H78       1.0  0.56797  0.04961  0.12497  1.0000
  H   H79       1.0  0.93350  0.03621  0.16386  1.0000
  H   H80       1.0  0.93618  0.08769  0.27945  1.0000
  H   H81       1.0  0.57034  0.10325  0.23572  1.0000
  C   C105      1.0  0.98354  0.36916  0.34218  1.0000
  C   C106      1.0  0.50535  0.13646  0.33266  1.0000
  C   C107      1.0  0.97976  0.20742  0.34311  1.0000
  C   C108      1.0  0.98213  0.22994  0.26018  1.0000
  C   C109      1.0  0.99534  0.27426  0.25954  1.0000
  C   C110      1.0  0.97196  0.20750  0.17415  1.0000
  H   H82       1.0  0.96005  0.17464  0.18154  1.0000
  H   H83       1.0  0.50092  0.20586  0.13280  1.0000
  H   H84       1.0  0.94687  0.22522  0.13839  1.0000
  C   C111      1.0  0.00014  0.29772  0.17266  1.0000
  H   H85       1.0  0.01268  0.33042  0.17848  1.0000
  H   H86       1.0  0.96880  0.29999  0.13961  1.0000
  H   H87       1.0  0.52260  0.28038  0.12951  1.0000
  N   N9        1.0  0.97159  0.16403  0.34783  1.0000
  H   H88       1.0  0.94314  0.15625  0.32581  1.0000
  C   C112      1.0  0.79360  0.47327  0.26453  1.0000
  H   H89       1.0  0.82798  0.46620  0.27141  1.0000
  H   H90       1.0  0.79063  0.49984  0.21711  1.0000
  H   H91       1.0  0.77828  0.44452  0.23659  1.0000
  C   C113      1.0  0.70008  0.49429  0.27044  1.0000
  H   H92       1.0  0.66639  0.50329  0.28127  1.0000
  H   H93       1.0  0.70024  0.46173  0.24243  1.0000
  H   H94       1.0  0.71318  0.01678  0.22138  1.0000
  C   C114      1.0  0.96169  0.00180  0.66242  1.0000
  C   C115      1.0  0.55680  0.45525  0.64902  1.0000
  C   C116      1.0  0.58888  0.45106  0.58326  1.0000
  C   C117      1.0  0.60260  0.48694  0.53197  1.0000
  C   C118      1.0  0.58196  0.02701  0.54834  1.0000
  C   C119      1.0  0.55016  0.03113  0.61472  1.0000
  C   C120      1.0  0.94321  0.04139  0.63331  1.0000
  C   C121      1.0  0.91400  0.04319  0.56166  1.0000
  C   C122      1.0  0.90211  0.00549  0.51417  1.0000
  C   C123      1.0  0.92153  0.46608  0.54032  1.0000
  C   C124      1.0  0.95060  0.46441  0.61227  1.0000
  H   H95       1.0  0.60227  0.42114  0.57382  1.0000
  H   H96       1.0  0.58898  0.05368  0.51083  1.0000
  H   H97       1.0  0.53567  0.06063  0.62229  1.0000
  H   H98       1.0  0.95177  0.07002  0.66229  1.0000
  H   H99       1.0  0.90115  0.07265  0.54537  1.0000
  H   H100      1.0  0.91547  0.43810  0.50621  1.0000
  H   H101      1.0  0.96451  0.43526  0.62692  1.0000
  C   C125      1.0  0.63729  0.48235  0.46950  1.0000
  C   C126      1.0  0.86959  0.00756  0.44650  1.0000
  O   O9        1.0  0.86096  0.04671  0.40973  1.0000
  O   O10       1.0  0.54498  0.14885  0.36205  1.0000
  O   O11       1.0  0.64792  0.44181  0.44262  1.0000
  O   O12       1.0  0.94379  0.35920  0.37450  1.0000
  C   C127      1.0  0.50360  0.29560  0.34216  1.0000
  C   C128      1.0  0.49990  0.27298  0.42315  1.0000
  C   C129      1.0  0.48857  0.22915  0.42353  1.0000
  H   H102      1.0  0.48708  0.21299  0.48298  1.0000
  H   H103      1.0  0.50617  0.28818  0.48235  1.0000
  N   N10       1.0  0.51495  0.33815  0.34629  1.0000
  H   H104      1.0  0.54287  0.34445  0.31921  1.0000
  C   C130      1.0  0.70756  0.00679  0.43612  1.0000
  C   C131      1.0  0.73287  0.00816  0.51414  1.0000
  C   C132      1.0  0.77664  0.99758  0.51155  1.0000
  C   C133      1.0  0.79672  0.48633  0.43052  1.0000
  C   C134      1.0  0.77216  0.48519  0.35027  1.0000
  H   H105      1.0  0.79396  0.99811  0.56973  1.0000
  H   H106      1.0  0.71916  0.01577  0.57426  1.0000
  C   C135      1.0  0.72691  0.49540  0.35317  1.0000
  N   N11       1.0  0.83950  0.47563  0.43602  1.0000
  H   H107      1.0  0.84463  0.44838  0.46681  1.0000
  N   N12       1.0  0.66448  0.01547  0.44725  1.0000
  H   H108      1.0  0.65881  0.04381  0.47277  1.0000
  C   C136      1.0  0.50335  0.60208  0.26892  1.0000
  C   C137      1.0  0.96414  0.58144  0.24555  1.0000
  C   C138      1.0  0.96253  0.55085  0.17643  1.0000
  C   C139      1.0  0.49991  0.53880  0.12720  1.0000
  C   C140      1.0  0.53932  0.55862  0.15326  1.0000
  C   C141      1.0  0.54095  0.58967  0.22153  1.0000
  C   C142      1.0  0.99827  0.99996  0.06423  1.0000
  C   C143      1.0  0.99437  0.96353  0.13264  1.0000
  C   C144      1.0  0.53007  0.95315  0.18840  1.0000
  C   C145      1.0  0.52641  0.92400  0.25975  1.0000
  C   C146      1.0  0.98662  0.90362  0.27918  1.0000
  C   C147      1.0  0.95037  0.91504  0.22670  1.0000
  C   C148      1.0  0.95413  0.94446  0.15577  1.0000
  C   C149      1.0  0.53721  0.99566  0.00202  1.0000
  H   H109      1.0  0.54712  0.92770  0.01414  1.0000
  H   H110      1.0  0.92650  0.95248  0.12239  1.0000
  H   H111      1.0  0.92080  0.90118  0.23786  1.0000
  H   H112      1.0  0.55333  0.91784  0.29730  1.0000
  H   H113      1.0  0.55949  0.96740  0.17795  1.0000
  H   H114      1.0  0.56797  0.54961  0.12497  1.0000
  H   H115      1.0  0.93350  0.53620  0.16386  1.0000
  H   H116      1.0  0.93618  0.58769  0.27945  1.0000
  H   H117      1.0  0.57034  0.60325  0.23572  1.0000
  C   C150      1.0  0.98354  0.86916  0.34218  1.0000
  C   C151      1.0  0.50535  0.63646  0.33266  1.0000
  C   C152      1.0  0.97976  0.70742  0.34311  1.0000
  C   C153      1.0  0.98213  0.72994  0.26018  1.0000
  C   C154      1.0  0.99534  0.77426  0.25954  1.0000
  C   C155      1.0  0.97196  0.70750  0.17415  1.0000
  H   H118      1.0  0.96005  0.67464  0.18154  1.0000
  H   H119      1.0  0.50092  0.70585  0.13280  1.0000
  H   H120      1.0  0.94687  0.72521  0.13839  1.0000
  C   C156      1.0  0.00014  0.79771  0.17266  1.0000
  H   H121      1.0  0.01268  0.83041  0.17848  1.0000
  H   H122      1.0  0.96880  0.79999  0.13961  1.0000
  H   H123      1.0  0.52260  0.78038  0.12951  1.0000
  N   N13       1.0  0.97159  0.66403  0.34783  1.0000
  H   H124      1.0  0.94314  0.65625  0.32581  1.0000
  C   C157      1.0  0.79360  0.97326  0.26453  1.0000
  H   H125      1.0  0.82798  0.96619  0.27141  1.0000
  H   H126      1.0  0.79063  0.99984  0.21711  1.0000
  H   H127      1.0  0.77828  0.94452  0.23659  1.0000
  C   C158      1.0  0.70008  0.99429  0.27044  1.0000
  H   H128      1.0  0.66639  0.00329  0.28127  1.0000
  H   H129      1.0  0.70024  0.96173  0.24243  1.0000
  H   H130      1.0  0.71318  0.51678  0.22138  1.0000
  C   C159      1.0  0.96169  0.50180  0.66242  1.0000
  C   C160      1.0  0.55680  0.95525  0.64902  1.0000
  C   C161      1.0  0.58888  0.95107  0.58326  1.0000
  C   C162      1.0  0.60260  0.98694  0.53197  1.0000
  C   C163      1.0  0.58196  0.52701  0.54834  1.0000
  C   C164      1.0  0.55016  0.53113  0.61472  1.0000
  C   C165      1.0  0.94321  0.54139  0.63331  1.0000
  C   C166      1.0  0.91400  0.54319  0.56166  1.0000
  C   C167      1.0  0.90211  0.50549  0.51417  1.0000
  C   C168      1.0  0.92153  0.96608  0.54032  1.0000
  C   C169      1.0  0.95060  0.96441  0.61227  1.0000
  H   H131      1.0  0.60227  0.92114  0.57382  1.0000
  H   H132      1.0  0.58898  0.55368  0.51083  1.0000
  H   H133      1.0  0.53567  0.56063  0.62229  1.0000
  H   H134      1.0  0.95177  0.57002  0.66229  1.0000
  H   H135      1.0  0.90115  0.57264  0.54537  1.0000
  H   H136      1.0  0.91547  0.93810  0.50621  1.0000
  H   H137      1.0  0.96451  0.93526  0.62692  1.0000
  C   C170      1.0  0.63729  0.98235  0.46950  1.0000
  C   C171      1.0  0.86959  0.50756  0.44650  1.0000
  O   O13       1.0  0.86096  0.54671  0.40973  1.0000
  O   O14       1.0  0.54498  0.64885  0.36205  1.0000
  O   O15       1.0  0.64792  0.94181  0.44262  1.0000
  O   O16       1.0  0.94379  0.85919  0.37450  1.0000
  C   C172      1.0  0.50360  0.79560  0.34216  1.0000
  C   C173      1.0  0.49990  0.77298  0.42315  1.0000
  C   C174      1.0  0.48857  0.72915  0.42353  1.0000
  H   H138      1.0  0.48708  0.71299  0.48298  1.0000
  H   H139      1.0  0.50617  0.78818  0.48235  1.0000
  N   N14       1.0  0.51495  0.83815  0.34629  1.0000
  H   H140      1.0  0.54287  0.84445  0.31921  1.0000
  C   C175      1.0  0.70756  0.50679  0.43612  1.0000
  C   C176      1.0  0.73287  0.50816  0.51414  1.0000
  C   C177      1.0  0.77664  0.49758  0.51155  1.0000
  C   C178      1.0  0.79672  0.98633  0.43052  1.0000
  C   C179      1.0  0.77216  0.98519  0.35027  1.0000
  H   H141      1.0  0.79396  0.49811  0.56973  1.0000
  H   H142      1.0  0.71916  0.51577  0.57426  1.0000
  C   C180      1.0  0.72691  0.99540  0.35317  1.0000
  N   N15       1.0  0.83950  0.97563  0.43602  1.0000
  H   H143      1.0  0.84463  0.94837  0.46681  1.0000
  N   N16       1.0  0.66448  0.51547  0.44725  1.0000
  H   H144      1.0  0.65881  0.54381  0.47277  1.0000
