data_image0
_chemical_formula_structural       C4H2C4H2N8C4H2C4H2C4H2C4H2N8C4H2C4H2C4H2C4H2CNCNCNCNCNCNCNCNCNCNCNCNCNCNCNCNCNCNCNCNCNCNCNCNCNCNCNCNCNCNCNCNCNCNCNCN5C4H2C4H2C4H2C4H2N8C4H2C4H2C4H2C4H2N8
_chemical_formula_sum              "C108 H36 N72"
_cell_length_a       33.882
_cell_length_b       33.7206
_cell_length_c       14.9459
_cell_angle_alpha    90
_cell_angle_beta     90
_cell_angle_gamma    90.2811

_space_group_name_H-M_alt    "P 1"
_space_group_IT_number       1

loop_
  _space_group_symop_operation_xyz
  'x, y, z'

loop_
  _atom_site_type_symbol
  _atom_site_label
  _atom_site_symmetry_multiplicity
  _atom_site_fract_x
  _atom_site_fract_y
  _atom_site_fract_z
  _atom_site_occupancy
  C   C1        1.0  0.97238  0.53031  0.32654  1.0000
  C   C2        1.0  0.01254  0.54161  0.32275  1.0000
  C   C3        1.0  0.04194  0.51250  0.32235  1.0000
  C   C4        1.0  0.03141  0.47188  0.32605  1.0000
  H   H1        1.0  0.07080  0.52145  0.31987  1.0000
  H   H2        1.0  0.02088  0.57079  0.32024  1.0000
  C   C5        1.0  0.46672  0.97253  0.33083  1.0000
  C   C6        1.0  0.45633  0.01304  0.32891  1.0000
  C   C7        1.0  0.48600  0.04222  0.32793  1.0000
  C   C8        1.0  0.52618  0.03104  0.32919  1.0000
  H   H3        1.0  0.47785  0.07138  0.32656  1.0000
  H   H4        1.0  0.42747  0.02176  0.32793  1.0000
  N   N1        1.0  0.03335  0.31828  0.33560  1.0000
  N   N2        1.0  0.02447  0.28029  0.33804  1.0000
  N   N3        1.0  0.90425  0.69585  0.33892  1.0000
  N   N4        1.0  0.91231  0.73391  0.34270  1.0000
  N   N5        1.0  0.69482  0.09380  0.33501  1.0000
  N   N6        1.0  0.73261  0.08569  0.33769  1.0000
  N   N7        1.0  0.31521  0.96740  0.33936  1.0000
  N   N8        1.0  0.27738  0.97581  0.34243  1.0000
  C   C9        1.0  0.45069  0.75115  0.32054  1.0000
  C   C10       1.0  0.41089  0.76273  0.31104  1.0000
  C   C11       1.0  0.40101  0.80296  0.31249  1.0000
  C   C12       1.0  0.43083  0.83207  0.32326  1.0000
  H   H5        1.0  0.37193  0.81042  0.30589  1.0000
  H   H6        1.0  0.38864  0.74237  0.30381  1.0000
  C   C13       1.0  0.54752  0.24884  0.31752  1.0000
  C   C14       1.0  0.51700  0.22027  0.31166  1.0000
  C   C15       1.0  0.52629  0.17978  0.31282  1.0000
  C   C16       1.0  0.56610  0.16781  0.31992  1.0000
  H   H7        1.0  0.50379  0.15952  0.30908  1.0000
  H   H8        1.0  0.48802  0.22837  0.30719  1.0000
  C   C17       1.0  0.75206  0.54662  0.32367  1.0000
  C   C18       1.0  0.77979  0.51552  0.31800  1.0000
  C   C19       1.0  0.82038  0.52428  0.31848  1.0000
  C   C20       1.0  0.83311  0.56413  0.32467  1.0000
  H   H9        1.0  0.84016  0.50152  0.31483  1.0000
  H   H10       1.0  0.77096  0.48652  0.31417  1.0000
  C   C21       1.0  0.24983  0.45394  0.31888  1.0000
  C   C22       1.0  0.22186  0.48485  0.31417  1.0000
  C   C23       1.0  0.18133  0.47582  0.31598  1.0000
  C   C24       1.0  0.16885  0.43590  0.32262  1.0000
  H   H11       1.0  0.16141  0.49846  0.31289  1.0000
  H   H12       1.0  0.23049  0.51389  0.30985  1.0000
  N   N9        1.0  0.07663  0.07519  0.32781  1.0000
  N   N10       1.0  0.09842  0.04374  0.32870  1.0000
  N   N11       1.0  0.91994  0.92496  0.33659  1.0000
  N   N12       1.0  0.89907  0.95701  0.33520  1.0000
  N   N13       1.0  0.92219  0.07979  0.31943  1.0000
  N   N14       1.0  0.95411  0.10111  0.31934  1.0000
  N   N15       1.0  0.07249  0.92365  0.35293  1.0000
  N   N16       1.0  0.04061  0.90234  0.35329  1.0000
  C   C25       1.0  0.36442  0.54349  0.32426  1.0000
  C   C26       1.0  0.34660  0.58120  0.31744  1.0000
  C   C27       1.0  0.37062  0.61571  0.31843  1.0000
  C   C28       1.0  0.41206  0.61198  0.32642  1.0000
  H   H13       1.0  0.35792  0.64304  0.31307  1.0000
  H   H14       1.0  0.31667  0.58371  0.31130  1.0000
  C   C29       1.0  0.63817  0.45718  0.33402  1.0000
  C   C30       1.0  0.65639  0.41990  0.32156  1.0000
  C   C31       1.0  0.63295  0.38496  0.32051  1.0000
  C   C32       1.0  0.59162  0.38783  0.33188  1.0000
  H   H15       1.0  0.64587  0.35804  0.30998  1.0000
  H   H16       1.0  0.68619  0.41805  0.31191  1.0000
  C   C33       1.0  0.54728  0.64190  0.34375  1.0000
  C   C34       1.0  0.58410  0.65898  0.32042  1.0000
  C   C35       1.0  0.61852  0.63514  0.32088  1.0000
  C   C36       1.0  0.61564  0.59461  0.34478  1.0000
  H   H17       1.0  0.64483  0.64684  0.29988  1.0000
  H   H18       1.0  0.58571  0.68772  0.29897  1.0000
  C   C37       1.0  0.45587  0.36058  0.33111  1.0000
  C   C38       1.0  0.41885  0.34240  0.31431  1.0000
  C   C39       1.0  0.38416  0.36581  0.31429  1.0000
  C   C40       1.0  0.38706  0.40701  0.33109  1.0000
  H   H19       1.0  0.35751  0.35311  0.29937  1.0000
  H   H20       1.0  0.41711  0.31284  0.29957  1.0000
  C   C41       1.0  0.12859  0.42448  0.32604  1.0000
  N   N17       1.0  0.09915  0.45149  0.32384  1.0000
  C   C42       1.0  0.06026  0.44142  0.32742  1.0000
  N   N18       1.0  0.05095  0.40207  0.33363  1.0000
  C   C43       1.0  0.07954  0.37370  0.33655  1.0000
  N   N19       1.0  0.11788  0.38585  0.33258  1.0000
  C   C44       1.0  0.87340  0.57544  0.32704  1.0000
  N   N20       1.0  0.90285  0.54802  0.32545  1.0000
  C   C45       1.0  0.94158  0.55868  0.32807  1.0000
  N   N21       1.0  0.95004  0.59805  0.33283  1.0000
  C   C46       1.0  0.92189  0.62654  0.33490  1.0000
  N   N22       1.0  0.88359  0.61450  0.33186  1.0000
  C   C47       1.0  0.57716  0.12737  0.32376  1.0000
  N   N23       1.0  0.54903  0.09860  0.32409  1.0000
  C   C48       1.0  0.55733  0.05936  0.32872  1.0000
  N   N24       1.0  0.59604  0.04904  0.33331  1.0000
  C   C49       1.0  0.62561  0.07670  0.33341  1.0000
  N   N25       1.0  0.61546  0.11572  0.32866  1.0000
  C   C50       1.0  0.42150  0.87304  0.32779  1.0000
  N   N26       1.0  0.44887  0.90275  0.32789  1.0000
  C   C51       1.0  0.43804  0.94170  0.33176  1.0000
  N   N27       1.0  0.39873  0.95038  0.33620  1.0000
  C   C52       1.0  0.37047  0.92170  0.33720  1.0000
  N   N28       1.0  0.38303  0.88372  0.33273  1.0000
  C   C53       1.0  0.99342  0.15848  0.33750  1.0000
  N   N29       1.0  0.00273  0.19785  0.34231  1.0000
  C   C54       1.0  0.04127  0.21038  0.34623  1.0000
  N   N30       1.0  0.07050  0.18252  0.34539  1.0000
  C   C55       1.0  0.06263  0.14320  0.34059  1.0000
  N   N31       1.0  0.02409  0.13281  0.33680  1.0000
  C   C56       1.0  0.00246  0.84386  0.35341  1.0000
  N   N32       1.0  0.99447  0.80445  0.35272  1.0000
  C   C57       1.0  0.95657  0.79022  0.35049  1.0000
  N   N33       1.0  0.92598  0.81670  0.34842  1.0000
  C   C58       1.0  0.93281  0.85656  0.34866  1.0000
  N   N34       1.0  0.97103  0.86824  0.35115  1.0000
  C   C59       1.0  0.84147  0.99552  0.34217  1.0000
  N   N35       1.0  0.80228  0.00339  0.34466  1.0000
  C   C60       1.0  0.78827  0.04139  0.34391  1.0000
  N   N36       1.0  0.81479  0.07225  0.34067  1.0000
  C   C61       1.0  0.85444  0.06568  0.33786  1.0000
  N   N37       1.0  0.86594  0.02728  0.33872  1.0000
  C   C62       1.0  0.15628  0.00583  0.34534  1.0000
  N   N38       1.0  0.19549  0.99675  0.34652  1.0000
  C   C63       1.0  0.20783  0.95806  0.35000  1.0000
  N   N39       1.0  0.17997  0.92852  0.35245  1.0000
  C   C64       1.0  0.14081  0.93632  0.35193  1.0000
  N   N40       1.0  0.13078  0.97491  0.34823  1.0000
  C   C65       1.0  0.50925  0.65926  0.33675  1.0000
  N   N41       1.0  0.50004  0.69852  0.33046  1.0000
  C   C66       1.0  0.46154  0.71053  0.32353  1.0000
  N   N42       1.0  0.43244  0.68227  0.32233  1.0000
  C   C67       1.0  0.44033  0.64306  0.32768  1.0000
  N   N43       1.0  0.47874  0.63316  0.33488  1.0000
  C   C68       1.0  0.49375  0.34291  0.32811  1.0000
  N   N44       1.0  0.50195  0.30368  0.32229  1.0000
  C   C69       1.0  0.53997  0.29012  0.32009  1.0000
  N   N45       1.0  0.57039  0.31699  0.32334  1.0000
  C   C70       1.0  0.56336  0.35662  0.32879  1.0000
  N   N46       1.0  0.52510  0.36779  0.33108  1.0000
  C   C71       1.0  0.65660  0.49503  0.33366  1.0000
  N   N47       1.0  0.69591  0.50229  0.32740  1.0000
  C   C72       1.0  0.71074  0.54009  0.32679  1.0000
  N   N48       1.0  0.68510  0.57129  0.33229  1.0000
  C   C73       1.0  0.64548  0.56525  0.33916  1.0000
  N   N49       1.0  0.63289  0.52707  0.33950  1.0000
  C   C74       1.0  0.34529  0.50599  0.32334  1.0000
  N   N50       1.0  0.30589  0.49866  0.31996  1.0000
  C   C75       1.0  0.29115  0.46076  0.31981  1.0000
  N   N51       1.0  0.31695  0.42960  0.32322  1.0000
  C   C76       1.0  0.35664  0.43578  0.32708  1.0000
  N   N52       1.0  0.36894  0.47396  0.32691  1.0000
  N   N53       1.0  0.99210  0.46335  0.32939  1.0000
  N   N54       1.0  0.96454  0.49064  0.32950  1.0000
  N   N55       1.0  0.53379  0.99143  0.33106  1.0000
  N   N56       1.0  0.50602  0.96414  0.33172  1.0000
  C   C77       1.0  0.05190  0.25119  0.34817  1.0000
  C   C78       1.0  0.09158  0.26366  0.35730  1.0000
  C   C79       1.0  0.10106  0.30412  0.35454  1.0000
  C   C80       1.0  0.07094  0.33250  0.34275  1.0000
  H   H21       1.0  0.13005  0.31230  0.36073  1.0000
  H   H22       1.0  0.11400  0.24375  0.36522  1.0000
  C   C81       1.0  0.94970  0.74870  0.34825  1.0000
  C   C82       1.0  0.98071  0.72081  0.35010  1.0000
  C   C83       1.0  0.97210  0.68011  0.34594  1.0000
  C   C84       1.0  0.93245  0.66721  0.34001  1.0000
  H   H23       1.0  0.99492  0.66037  0.34714  1.0000
  H   H24       1.0  0.00959  0.72958  0.35408  1.0000
  C   C85       1.0  0.74694  0.04815  0.34385  1.0000
  C   C86       1.0  0.71877  0.01708  0.34768  1.0000
  C   C87       1.0  0.67828  0.02580  0.34472  1.0000
  C   C88       1.0  0.66590  0.06562  0.33795  1.0000
  H   H25       1.0  0.65830  0.00300  0.34716  1.0000
  H   H26       1.0  0.72723  0.98808  0.35208  1.0000
  C   C89       1.0  0.24844  0.94773  0.34901  1.0000
  C   C90       1.0  0.26089  0.90782  0.35301  1.0000
  C   C91       1.0  0.30119  0.89884  0.34955  1.0000
  C   C92       1.0  0.32941  0.92968  0.34221  1.0000
  H   H27       1.0  0.30938  0.86971  0.35233  1.0000
  H   H28       1.0  0.24111  0.88492  0.35796  1.0000
  N   N57       1.0  0.46857  0.81871  0.33087  1.0000
  N   N58       1.0  0.47783  0.78086  0.32972  1.0000
  N   N59       1.0  0.59382  0.19709  0.32469  1.0000
  N   N60       1.0  0.58511  0.23495  0.32361  1.0000
  N   N61       1.0  0.80455  0.59232  0.32945  1.0000
  N   N62       1.0  0.76673  0.58417  0.32908  1.0000
  N   N63       1.0  0.19759  0.40788  0.32656  1.0000
  N   N64       1.0  0.23537  0.41630  0.32486  1.0000
  C   C93       1.0  0.13817  0.04378  0.34130  1.0000
  C   C94       1.0  0.15610  0.08141  0.35250  1.0000
  C   C95       1.0  0.13235  0.11595  0.35173  1.0000
  C   C96       1.0  0.09102  0.11240  0.33952  1.0000
  H   H29       1.0  0.14507  0.14314  0.36168  1.0000
  H   H30       1.0  0.18581  0.08376  0.36333  1.0000
  C   C97       1.0  0.85919  0.95746  0.34260  1.0000
  C   C98       1.0  0.84028  0.92012  0.35131  1.0000
  C   C99       1.0  0.86323  0.88503  0.35267  1.0000
  C   C100      1.0  0.90478  0.88779  0.34552  1.0000
  H   H31       1.0  0.84976  0.85805  0.36019  1.0000
  H   H32       1.0  0.81029  0.91831  0.35765  1.0000
  C   C101      1.0  0.95513  0.14085  0.33410  1.0000
  C   C102      1.0  0.91813  0.15915  0.34843  1.0000
  C   C103      1.0  0.88312  0.13578  0.34849  1.0000
  C   C104      1.0  0.88546  0.09434  0.33426  1.0000
  H   H33       1.0  0.85653  0.14877  0.36133  1.0000
  H   H34       1.0  0.91661  0.18887  0.36121  1.0000
  C   C105      1.0  0.04023  0.86209  0.35445  1.0000
  C   C106      1.0  0.07742  0.84320  0.35558  1.0000
  C   C107      1.0  0.11233  0.86652  0.35525  1.0000
  C   C108      1.0  0.10947  0.90836  0.35370  1.0000
  H   H35       1.0  0.13929  0.85306  0.35565  1.0000
  H   H36       1.0  0.07927  0.81295  0.35626  1.0000
  N   N65       1.0  0.42640  0.57461  0.33289  1.0000
  N   N66       1.0  0.40437  0.54307  0.33187  1.0000
  N   N67       1.0  0.57707  0.42489  0.34432  1.0000
  N   N68       1.0  0.59845  0.45686  0.34535  1.0000
  N   N69       1.0  0.57929  0.58138  0.36898  1.0000
  N   N70       1.0  0.54790  0.60315  0.36850  1.0000
  N   N71       1.0  0.42379  0.42134  0.34848  1.0000
  N   N72       1.0  0.45544  0.40004  0.34854  1.0000
