data_image0
_chemical_formula_structural       C3H2C2HC2O2CNC2OHNHCNC2OHNHC3HC4H2C2O2NC2HNHNC2HNHC3H2C2HC2O2CNC2OHNHCNC2OHNHC3HC4H2C2O2NC2HNHNC2HNHC3H2C2HC2O2CNC2OHNHCNC2OHNHC3HC4H2C2O2NC2HNHNC2HNHC3H2C2HC2O2CNC2OHNHCNC2OHNHC3HC4H2C2O2NC2HNHNC2HNH
_chemical_formula_sum              "C104 H56 O24 N32"
_cell_length_a       30.2122
_cell_length_b       30.2122
_cell_length_c       15.003
_cell_angle_alpha    90
_cell_angle_beta     90
_cell_angle_gamma    90

_space_group_name_H-M_alt    "P 1"
_space_group_IT_number       1

loop_
  _space_group_symop_operation_xyz
  'x, y, z'

loop_
  _atom_site_type_symbol
  _atom_site_label
  _atom_site_symmetry_multiplicity
  _atom_site_fract_x
  _atom_site_fract_y
  _atom_site_fract_z
  _atom_site_occupancy
  C   C1        1.0  0.49856  0.43970  0.26707  1.0000
  C   C2        1.0  0.46901  0.40980  0.22541  1.0000
  C   C3        1.0  0.42497  0.42415  0.21261  1.0000
  H   H1        1.0  0.03115  0.43114  0.26719  1.0000
  H   H2        1.0  0.40294  0.40216  0.18587  1.0000
  C   C4        1.0  0.03586  0.09081  0.38120  1.0000
  C   C5        1.0  0.00747  0.05949  0.34006  1.0000
  H   H3        1.0  0.47930  0.07100  0.31108  1.0000
  C   C6        1.0  0.02989  0.13760  0.37710  1.0000
  C   C7        1.0  0.47992  0.36510  0.20499  1.0000
  O   O1        1.0  0.05454  0.16241  0.43406  1.0000
  O   O2        1.0  0.45305  0.34315  0.14738  1.0000
  C   C8        1.0  0.00535  0.20383  0.29583  1.0000
  N   N1        1.0  0.98215  0.26880  0.21832  1.0000
  C   C9        1.0  0.97831  0.22422  0.22971  1.0000
  C   C10       1.0  0.94776  0.20161  0.17826  1.0000
  O   O3        1.0  0.91871  0.22185  0.13874  1.0000
  H   H4        1.0  0.95873  0.17507  0.14614  1.0000
  N   N2        1.0  0.00456  0.15942  0.31532  1.0000
  H   H5        1.0  0.98619  0.14127  0.27728  1.0000
  C   C11       1.0  0.29475  0.99569  0.33365  1.0000
  N   N3        1.0  0.22970  0.02049  0.40866  1.0000
  C   C12       1.0  0.27400  0.02533  0.39458  1.0000
  C   C13       1.0  0.29585  0.05984  0.43666  1.0000
  O   O4        1.0  0.27767  0.07950  0.49777  1.0000
  H   H6        1.0  0.31460  0.07860  0.39770  1.0000
  N   N4        1.0  0.33925  0.99601  0.31496  1.0000
  H   H7        1.0  0.35721  0.01514  0.35189  1.0000
  C   C14       1.0  0.48568  0.48228  0.29841  1.0000
  C   C15       1.0  0.40813  0.46300  0.25296  1.0000
  C   C16       1.0  0.43945  0.49149  0.29391  1.0000
  H   H8        1.0  0.42796  0.01966  0.32287  1.0000
  C   C17       1.0  0.01670  0.01328  0.33588  1.0000
  C   C18       1.0  0.05932  0.00046  0.36725  1.0000
  C   C19       1.0  0.08912  0.03004  0.40922  1.0000
  C   C20       1.0  0.07459  0.07403  0.42207  1.0000
  H   H9        1.0  0.06789  0.46789  0.36723  1.0000
  H   H10       1.0  0.09645  0.09614  0.44894  1.0000
  C   C21       1.0  0.13394  0.01947  0.42943  1.0000
  C   C22       1.0  0.36132  0.46911  0.25637  1.0000
  O   O5        1.0  0.33655  0.44392  0.20031  1.0000
  O   O6        1.0  0.15592  0.04680  0.48615  1.0000
  N   N5        1.0  0.03404  0.23128  0.33904  1.0000
  C   C23       1.0  0.03825  0.27533  0.32521  1.0000
  C   C24       1.0  0.01051  0.29613  0.26240  1.0000
  H   H11       1.0  0.06014  0.29294  0.36310  1.0000
  N   N6        1.0  0.00996  0.34119  0.25341  1.0000
  H   H12       1.0  0.02881  0.35745  0.29457  1.0000
  N   N7        1.0  0.26789  0.96434  0.29687  1.0000
  C   C25       1.0  0.22403  0.95969  0.31264  1.0000
  C   C26       1.0  0.20294  0.98928  0.37149  1.0000
  H   H13       1.0  0.20682  0.93550  0.28000  1.0000
  N   N8        1.0  0.15798  0.98895  0.38252  1.0000
  H   H14       1.0  0.14175  0.96867  0.34422  1.0000
  C   C27       1.0  0.49856  0.93970  0.26707  1.0000
  C   C28       1.0  0.46901  0.90980  0.22541  1.0000
  C   C29       1.0  0.42497  0.92415  0.21261  1.0000
  H   H15       1.0  0.03115  0.93114  0.26719  1.0000
  H   H16       1.0  0.40294  0.90216  0.18587  1.0000
  C   C30       1.0  0.03586  0.59081  0.38120  1.0000
  C   C31       1.0  0.00747  0.55949  0.34006  1.0000
  H   H17       1.0  0.47930  0.57100  0.31108  1.0000
  C   C32       1.0  0.02989  0.63760  0.37710  1.0000
  C   C33       1.0  0.47992  0.86510  0.20499  1.0000
  O   O7        1.0  0.05454  0.66241  0.43406  1.0000
  O   O8        1.0  0.45305  0.84315  0.14738  1.0000
  C   C34       1.0  0.00535  0.70383  0.29583  1.0000
  N   N9        1.0  0.98215  0.76880  0.21832  1.0000
  C   C35       1.0  0.97831  0.72422  0.22971  1.0000
  C   C36       1.0  0.94776  0.70161  0.17826  1.0000
  O   O9        1.0  0.91871  0.72185  0.13874  1.0000
  H   H18       1.0  0.95873  0.67507  0.14614  1.0000
  N   N10       1.0  0.00456  0.65942  0.31532  1.0000
  H   H19       1.0  0.98619  0.64126  0.27728  1.0000
  C   C37       1.0  0.29475  0.49569  0.33365  1.0000
  N   N11       1.0  0.22970  0.52049  0.40866  1.0000
  C   C38       1.0  0.27400  0.52533  0.39458  1.0000
  C   C39       1.0  0.29585  0.55984  0.43666  1.0000
  O   O10       1.0  0.27767  0.57949  0.49777  1.0000
  H   H20       1.0  0.31460  0.57860  0.39770  1.0000
  N   N12       1.0  0.33925  0.49601  0.31496  1.0000
  H   H21       1.0  0.35721  0.51514  0.35189  1.0000
  C   C40       1.0  0.48568  0.98227  0.29841  1.0000
  C   C41       1.0  0.40813  0.96300  0.25296  1.0000
  C   C42       1.0  0.43945  0.99149  0.29391  1.0000
  H   H22       1.0  0.42796  0.51966  0.32287  1.0000
  C   C43       1.0  0.01670  0.51328  0.33588  1.0000
  C   C44       1.0  0.05932  0.50046  0.36725  1.0000
  C   C45       1.0  0.08912  0.53004  0.40922  1.0000
  C   C46       1.0  0.07459  0.57403  0.42207  1.0000
  H   H23       1.0  0.06789  0.96789  0.36723  1.0000
  H   H24       1.0  0.09645  0.59614  0.44894  1.0000
  C   C47       1.0  0.13394  0.51947  0.42943  1.0000
  C   C48       1.0  0.36132  0.96911  0.25637  1.0000
  O   O11       1.0  0.33655  0.94392  0.20031  1.0000
  O   O12       1.0  0.15592  0.54679  0.48615  1.0000
  N   N13       1.0  0.03404  0.73128  0.33904  1.0000
  C   C49       1.0  0.03825  0.77532  0.32521  1.0000
  C   C50       1.0  0.01051  0.79613  0.26240  1.0000
  H   H25       1.0  0.06014  0.79294  0.36310  1.0000
  N   N14       1.0  0.00996  0.84119  0.25341  1.0000
  H   H26       1.0  0.02881  0.85744  0.29457  1.0000
  N   N15       1.0  0.26789  0.46434  0.29687  1.0000
  C   C51       1.0  0.22403  0.45969  0.31264  1.0000
  C   C52       1.0  0.20294  0.48928  0.37149  1.0000
  H   H27       1.0  0.20682  0.43550  0.28000  1.0000
  N   N16       1.0  0.15798  0.48896  0.38252  1.0000
  H   H28       1.0  0.14175  0.46867  0.34422  1.0000
  C   C53       1.0  0.99856  0.43970  0.26707  1.0000
  C   C54       1.0  0.96901  0.40980  0.22541  1.0000
  C   C55       1.0  0.92497  0.42415  0.21261  1.0000
  H   H29       1.0  0.53114  0.43114  0.26719  1.0000
  H   H30       1.0  0.90295  0.40216  0.18587  1.0000
  C   C56       1.0  0.53586  0.09081  0.38120  1.0000
  C   C57       1.0  0.50748  0.05949  0.34006  1.0000
  H   H31       1.0  0.97930  0.07100  0.31108  1.0000
  C   C58       1.0  0.52989  0.13760  0.37710  1.0000
  C   C59       1.0  0.97992  0.36510  0.20499  1.0000
  O   O13       1.0  0.55454  0.16241  0.43406  1.0000
  O   O14       1.0  0.95305  0.34315  0.14738  1.0000
  C   C60       1.0  0.50535  0.20383  0.29583  1.0000
  N   N17       1.0  0.48216  0.26880  0.21832  1.0000
  C   C61       1.0  0.47831  0.22422  0.22971  1.0000
  C   C62       1.0  0.44776  0.20161  0.17826  1.0000
  O   O15       1.0  0.41871  0.22185  0.13874  1.0000
  H   H32       1.0  0.45873  0.17507  0.14614  1.0000
  N   N18       1.0  0.50456  0.15942  0.31532  1.0000
  H   H33       1.0  0.48619  0.14127  0.27728  1.0000
  C   C63       1.0  0.79475  0.99569  0.33365  1.0000
  N   N19       1.0  0.72970  0.02049  0.40866  1.0000
  C   C64       1.0  0.77400  0.02533  0.39458  1.0000
  C   C65       1.0  0.79585  0.05984  0.43666  1.0000
  O   O16       1.0  0.77767  0.07950  0.49777  1.0000
  H   H34       1.0  0.81459  0.07860  0.39770  1.0000
  N   N20       1.0  0.83925  0.99601  0.31496  1.0000
  H   H35       1.0  0.85721  0.01514  0.35189  1.0000
  C   C66       1.0  0.98568  0.48228  0.29841  1.0000
  C   C67       1.0  0.90813  0.46300  0.25296  1.0000
  C   C68       1.0  0.93945  0.49149  0.29391  1.0000
  H   H36       1.0  0.92796  0.01966  0.32287  1.0000
  C   C69       1.0  0.51670  0.01328  0.33588  1.0000
  C   C70       1.0  0.55932  0.00046  0.36725  1.0000
  C   C71       1.0  0.58912  0.03004  0.40922  1.0000
  C   C72       1.0  0.57458  0.07403  0.42207  1.0000
  H   H37       1.0  0.56789  0.46789  0.36723  1.0000
  H   H38       1.0  0.59645  0.09614  0.44894  1.0000
  C   C73       1.0  0.63394  0.01947  0.42943  1.0000
  C   C74       1.0  0.86132  0.46911  0.25637  1.0000
  O   O17       1.0  0.83655  0.44392  0.20031  1.0000
  O   O18       1.0  0.65592  0.04680  0.48615  1.0000
  N   N21       1.0  0.53404  0.23128  0.33904  1.0000
  C   C75       1.0  0.53825  0.27533  0.32521  1.0000
  C   C76       1.0  0.51051  0.29613  0.26240  1.0000
  H   H39       1.0  0.56014  0.29294  0.36310  1.0000
  N   N22       1.0  0.50996  0.34119  0.25341  1.0000
  H   H40       1.0  0.52881  0.35745  0.29457  1.0000
  N   N23       1.0  0.76789  0.96434  0.29687  1.0000
  C   C77       1.0  0.72403  0.95969  0.31264  1.0000
  C   C78       1.0  0.70294  0.98928  0.37149  1.0000
  H   H41       1.0  0.70682  0.93550  0.28000  1.0000
  N   N24       1.0  0.65798  0.98895  0.38252  1.0000
  H   H42       1.0  0.64175  0.96867  0.34422  1.0000
  C   C79       1.0  0.99856  0.93970  0.26707  1.0000
  C   C80       1.0  0.96901  0.90980  0.22541  1.0000
  C   C81       1.0  0.92497  0.92415  0.21261  1.0000
  H   H43       1.0  0.53114  0.93114  0.26719  1.0000
  H   H44       1.0  0.90295  0.90216  0.18587  1.0000
  C   C82       1.0  0.53586  0.59081  0.38120  1.0000
  C   C83       1.0  0.50748  0.55949  0.34006  1.0000
  H   H45       1.0  0.97930  0.57100  0.31108  1.0000
  C   C84       1.0  0.52989  0.63760  0.37710  1.0000
  C   C85       1.0  0.97992  0.86510  0.20499  1.0000
  O   O19       1.0  0.55454  0.66241  0.43406  1.0000
  O   O20       1.0  0.95305  0.84315  0.14738  1.0000
  C   C86       1.0  0.50535  0.70383  0.29583  1.0000
  N   N25       1.0  0.48216  0.76880  0.21832  1.0000
  C   C87       1.0  0.47831  0.72422  0.22971  1.0000
  C   C88       1.0  0.44776  0.70161  0.17826  1.0000
  O   O21       1.0  0.41871  0.72185  0.13874  1.0000
  H   H46       1.0  0.45873  0.67507  0.14614  1.0000
  N   N26       1.0  0.50456  0.65942  0.31532  1.0000
  H   H47       1.0  0.48619  0.64126  0.27728  1.0000
  C   C89       1.0  0.79475  0.49569  0.33365  1.0000
  N   N27       1.0  0.72970  0.52049  0.40866  1.0000
  C   C90       1.0  0.77400  0.52533  0.39458  1.0000
  C   C91       1.0  0.79585  0.55984  0.43666  1.0000
  O   O22       1.0  0.77767  0.57949  0.49777  1.0000
  H   H48       1.0  0.81459  0.57860  0.39770  1.0000
  N   N28       1.0  0.83925  0.49601  0.31496  1.0000
  H   H49       1.0  0.85721  0.51514  0.35189  1.0000
  C   C92       1.0  0.98568  0.98227  0.29841  1.0000
  C   C93       1.0  0.90813  0.96300  0.25296  1.0000
  C   C94       1.0  0.93945  0.99149  0.29391  1.0000
  H   H50       1.0  0.92796  0.51966  0.32287  1.0000
  C   C95       1.0  0.51670  0.51328  0.33588  1.0000
  C   C96       1.0  0.55932  0.50046  0.36725  1.0000
  C   C97       1.0  0.58912  0.53004  0.40922  1.0000
  C   C98       1.0  0.57458  0.57403  0.42207  1.0000
  H   H51       1.0  0.56789  0.96789  0.36723  1.0000
  H   H52       1.0  0.59645  0.59614  0.44894  1.0000
  C   C99       1.0  0.63394  0.51947  0.42943  1.0000
  C   C100      1.0  0.86132  0.96911  0.25637  1.0000
  O   O23       1.0  0.83655  0.94392  0.20031  1.0000
  O   O24       1.0  0.65592  0.54679  0.48615  1.0000
  N   N29       1.0  0.53404  0.73128  0.33904  1.0000
  C   C101      1.0  0.53825  0.77532  0.32521  1.0000
  C   C102      1.0  0.51051  0.79613  0.26240  1.0000
  H   H53       1.0  0.56014  0.79294  0.36310  1.0000
  N   N30       1.0  0.50996  0.84119  0.25341  1.0000
  H   H54       1.0  0.52881  0.85744  0.29457  1.0000
  N   N31       1.0  0.76789  0.46434  0.29687  1.0000
  C   C103      1.0  0.72403  0.45969  0.31264  1.0000
  C   C104      1.0  0.70294  0.48928  0.37149  1.0000
  H   H55       1.0  0.70682  0.43550  0.28000  1.0000
  N   N32       1.0  0.65798  0.48896  0.38252  1.0000
  H   H56       1.0  0.64175  0.46867  0.34422  1.0000
