data_image0
_chemical_formula_structural       C2H8C2H8C2H2C3H2NHC2H2C3H2NHC2H2C3H2NHC28H16CHCHCHC28H16CHCHCHC7H3NO2NHC7H3NO2NHC7H3NO2NH
_chemical_formula_sum              "C102 H81 N9 O6"
_cell_length_a       52.4307
_cell_length_b       52.4259
_cell_length_c       14.9782
_cell_angle_alpha    90
_cell_angle_beta     90
_cell_angle_gamma    120.001

_space_group_name_H-M_alt    "P 1"
_space_group_IT_number       1

loop_
  _space_group_symop_operation_xyz
  'x, y, z'

loop_
  _atom_site_type_symbol
  _atom_site_label
  _atom_site_symmetry_multiplicity
  _atom_site_fract_x
  _atom_site_fract_y
  _atom_site_fract_z
  _atom_site_occupancy
  C   C1        1.0  0.37758  0.79723  0.33554  1.0000
  C   C2        1.0  0.39639  0.82795  0.33862  1.0000
  H   H1        1.0  0.38762  0.84106  0.32463  1.0000
  H   H2        1.0  0.35583  0.78904  0.32000  1.0000
  H   H3        1.0  0.45486  0.61416  0.32476  1.0000
  H   H4        1.0  0.16074  0.54692  0.32461  1.0000
  H   H5        1.0  0.21275  0.56713  0.31991  1.0000
  H   H6        1.0  0.12337  0.58701  0.32157  1.0000
  H   H7        1.0  0.41476  0.53669  0.32152  1.0000
  H   H8        1.0  0.46508  0.87843  0.32151  1.0000
  C   C3        1.0  0.62405  0.20363  0.34240  1.0000
  C   C4        1.0  0.60526  0.17297  0.33498  1.0000
  H   H9        1.0  0.61457  0.15999  0.32813  1.0000
  H   H10       1.0  0.64635  0.21195  0.33988  1.0000
  H   H11       1.0  0.54688  0.38726  0.32821  1.0000
  H   H12       1.0  0.84186  0.45496  0.32809  1.0000
  H   H13       1.0  0.78990  0.43479  0.33981  1.0000
  H   H14       1.0  0.87728  0.41239  0.28123  1.0000
  H   H15       1.0  0.58942  0.46525  0.28115  1.0000
  H   H16       1.0  0.53659  0.12456  0.28119  1.0000
  C   C5        1.0  0.48763  0.52096  0.25801  1.0000
  C   C6        1.0  0.47598  0.53987  0.26568  1.0000
  H   H17       1.0  0.49171  0.51604  0.19540  1.0000
  H   H18       1.0  0.47230  0.54847  0.20903  1.0000
  C   C7        1.0  0.53266  0.45418  0.31256  1.0000
  C   C8        1.0  0.54214  0.47915  0.25736  1.0000
  C   C9        1.0  0.52934  0.49710  0.26489  1.0000
  H   H19       1.0  0.55846  0.48440  0.21145  1.0000
  H   H20       1.0  0.53733  0.51537  0.22513  1.0000
  N   N1        1.0  0.54454  0.43521  0.30639  1.0000
  H   H21       1.0  0.54130  0.42699  0.24254  1.0000
  C   C10       1.0  0.48083  0.96704  0.25799  1.0000
  C   C11       1.0  0.46192  0.93647  0.26565  1.0000
  H   H22       1.0  0.48576  0.97603  0.19538  1.0000
  H   H23       1.0  0.45331  0.92419  0.20900  1.0000
  C   C12       1.0  0.54763  0.07884  0.31258  1.0000
  C   C13       1.0  0.52266  0.06336  0.25738  1.0000
  C   C14       1.0  0.50471  0.03262  0.26490  1.0000
  H   H24       1.0  0.51742  0.07445  0.21147  1.0000
  H   H25       1.0  0.48644  0.02234  0.22513  1.0000
  N   N2        1.0  0.56661  0.10969  0.30639  1.0000
  H   H26       1.0  0.57483  0.11467  0.24254  1.0000
  C   C15       1.0  0.03479  0.51416  0.25800  1.0000
  C   C16       1.0  0.06535  0.52581  0.26567  1.0000
  H   H27       1.0  0.02579  0.51010  0.19539  1.0000
  H   H28       1.0  0.07763  0.52949  0.20901  1.0000
  C   C17       1.0  0.92299  0.46915  0.31259  1.0000
  C   C18       1.0  0.93847  0.45966  0.25739  1.0000
  C   C19       1.0  0.96921  0.47245  0.26492  1.0000
  H   H29       1.0  0.92738  0.44334  0.21148  1.0000
  H   H30       1.0  0.97949  0.46446  0.22513  1.0000
  N   N3        1.0  0.89215  0.45729  0.30638  1.0000
  H   H31       1.0  0.88717  0.46052  0.24252  1.0000
  C   C20       1.0  0.42649  0.84037  0.36171  1.0000
  C   C21       1.0  0.43722  0.82089  0.37939  1.0000
  C   C22       1.0  0.41854  0.79015  0.37564  1.0000
  C   C23       1.0  0.38845  0.77797  0.35376  1.0000
  C   C24       1.0  0.36936  0.74781  0.35477  1.0000
  C   C25       1.0  0.37210  0.72889  0.30043  1.0000
  C   C26       1.0  0.35324  0.69853  0.30180  1.0000
  C   C27       1.0  0.32225  0.68593  0.30102  1.0000
  C   C28       1.0  0.30327  0.65506  0.30172  1.0000
  C   C29       1.0  0.31586  0.63667  0.30098  1.0000
  C   C30       1.0  0.34673  0.64855  0.30174  1.0000
  C   C31       1.0  0.36512  0.67955  0.30104  1.0000
  C   C32       1.0  0.35823  0.62969  0.30036  1.0000
  C   C33       1.0  0.37987  0.63242  0.35475  1.0000
  C   C34       1.0  0.39094  0.61332  0.35371  1.0000
  C   C35       1.0  0.42107  0.62421  0.33558  1.0000
  C   C36       1.0  0.37303  0.58323  0.37558  1.0000
  C   C37       1.0  0.38508  0.56454  0.37931  1.0000
  C   C38       1.0  0.41529  0.57529  0.36170  1.0000
  C   C39       1.0  0.43298  0.60539  0.33866  1.0000
  C   C40       1.0  0.27290  0.64356  0.30032  1.0000
  C   C41       1.0  0.25399  0.62190  0.35469  1.0000
  C   C42       1.0  0.22383  0.61084  0.35366  1.0000
  C   C43       1.0  0.21165  0.62874  0.37562  1.0000
  C   C44       1.0  0.20458  0.58071  0.33547  1.0000
  C   C45       1.0  0.17385  0.56879  0.33859  1.0000
  C   C46       1.0  0.16144  0.58648  0.36170  1.0000
  C   C47       1.0  0.18091  0.61669  0.37938  1.0000
  H   H32       1.0  0.45883  0.82903  0.39648  1.0000
  H   H33       1.0  0.42697  0.77677  0.39063  1.0000
  H   H34       1.0  0.38754  0.68844  0.29989  1.0000
  H   H35       1.0  0.31336  0.69946  0.29985  1.0000
  H   H36       1.0  0.30233  0.61424  0.29979  1.0000
  H   H37       1.0  0.22504  0.65056  0.39060  1.0000
  H   H38       1.0  0.43465  0.64596  0.32008  1.0000
  H   H39       1.0  0.37161  0.54293  0.39641  1.0000
  H   H40       1.0  0.35121  0.57480  0.39052  1.0000
  H   H41       1.0  0.17277  0.63016  0.39652  1.0000
  H   H42       1.0  0.38897  0.64914  0.39764  1.0000
  H   H43       1.0  0.34916  0.61274  0.25818  1.0000
  H   H44       1.0  0.35263  0.74019  0.39761  1.0000
  H   H45       1.0  0.38906  0.73677  0.25829  1.0000
  H   H46       1.0  0.26161  0.61280  0.39754  1.0000
  H   H47       1.0  0.26503  0.65265  0.25820  1.0000
  C   C48       1.0  0.12908  0.57487  0.36935  1.0000
  H   H48       1.0  0.12462  0.57990  0.43646  1.0000
  C   C49       1.0  0.42690  0.55453  0.36934  1.0000
  H   H49       1.0  0.42185  0.54502  0.43643  1.0000
  C   C50       1.0  0.44725  0.87273  0.36932  1.0000
  H   H50       1.0  0.45675  0.87720  0.43641  1.0000
  C   C51       1.0  0.57427  0.16037  0.33785  1.0000
  C   C52       1.0  0.56278  0.17947  0.34987  1.0000
  C   C53       1.0  0.58149  0.21013  0.35673  1.0000
  C   C54       1.0  0.61240  0.22264  0.35222  1.0000
  C   C55       1.0  0.63128  0.25281  0.35979  1.0000
  C   C56       1.0  0.62967  0.27274  0.30711  1.0000
  C   C57       1.0  0.64868  0.30299  0.31281  1.0000
  C   C58       1.0  0.67963  0.31526  0.31223  1.0000
  C   C59       1.0  0.69886  0.34609  0.31285  1.0000
  C   C60       1.0  0.68659  0.36476  0.31221  1.0000
  C   C61       1.0  0.65576  0.35317  0.31280  1.0000
  C   C62       1.0  0.63709  0.32223  0.31217  1.0000
  C   C63       1.0  0.64454  0.37219  0.30713  1.0000
  C   C64       1.0  0.62301  0.37058  0.35986  1.0000
  C   C65       1.0  0.61171  0.38945  0.35226  1.0000
  C   C66       1.0  0.58105  0.37780  0.34246  1.0000
  C   C67       1.0  0.63011  0.42037  0.35674  1.0000
  C   C68       1.0  0.61816  0.43908  0.34986  1.0000
  C   C69       1.0  0.58756  0.42757  0.33788  1.0000
  C   C70       1.0  0.56918  0.39658  0.33502  1.0000
  C   C71       1.0  0.72910  0.35731  0.30713  1.0000
  C   C72       1.0  0.74904  0.37887  0.35978  1.0000
  C   C73       1.0  0.77920  0.39015  0.35219  1.0000
  C   C74       1.0  0.79171  0.37173  0.35675  1.0000
  C   C75       1.0  0.79822  0.42081  0.34235  1.0000
  C   C76       1.0  0.82887  0.43267  0.33493  1.0000
  C   C77       1.0  0.84147  0.41428  0.33785  1.0000
  C   C78       1.0  0.82237  0.38368  0.34989  1.0000
  H   H51       1.0  0.54049  0.17113  0.35329  1.0000
  H   H52       1.0  0.57233  0.22322  0.36549  1.0000
  H   H53       1.0  0.61471  0.31357  0.30960  1.0000
  H   H54       1.0  0.68828  0.30153  0.30960  1.0000
  H   H55       1.0  0.70032  0.38715  0.30961  1.0000
  H   H56       1.0  0.77862  0.34948  0.36554  1.0000
  H   H57       1.0  0.56707  0.35549  0.33997  1.0000
  H   H58       1.0  0.63210  0.46137  0.35325  1.0000
  H   H59       1.0  0.65237  0.42954  0.36547  1.0000
  H   H60       1.0  0.83070  0.36973  0.35336  1.0000
  H   H61       1.0  0.61387  0.35459  0.40515  1.0000
  H   H62       1.0  0.65345  0.38815  0.26162  1.0000
  H   H63       1.0  0.64726  0.25966  0.40512  1.0000
  H   H64       1.0  0.61371  0.26570  0.26161  1.0000
  H   H65       1.0  0.74220  0.38800  0.40509  1.0000
  H   H66       1.0  0.73614  0.34838  0.26165  1.0000
  C   C79       1.0  0.87377  0.42565  0.33093  1.0000
  H   H67       1.0  0.88110  0.42201  0.39568  1.0000
  C   C80       1.0  0.57618  0.44850  0.33090  1.0000
  H   H68       1.0  0.57981  0.45948  0.39562  1.0000
  C   C81       1.0  0.55334  0.12806  0.33091  1.0000
  H   H69       1.0  0.54237  0.12073  0.39565  1.0000
  C   C82       1.0  0.46933  0.54696  0.34998  1.0000
  C   C83       1.0  0.47473  0.53497  0.42778  1.0000
  C   C84       1.0  0.48674  0.51615  0.41900  1.0000
  C   C85       1.0  0.49351  0.50888  0.33453  1.0000
  C   C86       1.0  0.50643  0.49050  0.32692  1.0000
  C   C87       1.0  0.49695  0.46521  0.38139  1.0000
  C   C88       1.0  0.50986  0.44734  0.37430  1.0000
  H   H70       1.0  0.48009  0.45920  0.42593  1.0000
  H   H71       1.0  0.50240  0.42912  0.41411  1.0000
  H   H72       1.0  0.49137  0.50844  0.47590  1.0000
  N   N4        1.0  0.46878  0.54277  0.51244  1.0000
  O   O1        1.0  0.49178  0.55605  0.55868  1.0000
  O   O2        1.0  0.45024  0.52045  0.55478  1.0000
  N   N5        1.0  0.45894  0.56726  0.35198  1.0000
  H   H73       1.0  0.47124  0.58370  0.39688  1.0000
  C   C89       1.0  0.45481  0.92273  0.34995  1.0000
  C   C90       1.0  0.46681  0.94012  0.42776  1.0000
  C   C91       1.0  0.48564  0.97095  0.41899  1.0000
  C   C92       1.0  0.49292  0.98499  0.33453  1.0000
  C   C93       1.0  0.51130  0.01630  0.32693  1.0000
  C   C94       1.0  0.53658  0.03209  0.38141  1.0000
  C   C95       1.0  0.55447  0.06288  0.37431  1.0000
  H   H74       1.0  0.54261  0.02125  0.42591  1.0000
  H   H75       1.0  0.57269  0.07363  0.41410  1.0000
  H   H76       1.0  0.49335  0.98329  0.47590  1.0000
  N   N6        1.0  0.45899  0.92636  0.51241  1.0000
  O   O3        1.0  0.44573  0.93610  0.55866  1.0000
  O   O4        1.0  0.48131  0.93012  0.55476  1.0000
  N   N7        1.0  0.43451  0.89204  0.35194  1.0000
  H   H77       1.0  0.41807  0.88790  0.39683  1.0000
  C   C96       1.0  0.07908  0.53243  0.34997  1.0000
  C   C97       1.0  0.06169  0.52704  0.42777  1.0000
  C   C98       1.0  0.03087  0.51504  0.41899  1.0000
  C   C99       1.0  0.01683  0.50828  0.33453  1.0000
  C   C100      1.0  0.98553  0.49536  0.32693  1.0000
  C   C101      1.0  0.96973  0.50485  0.38141  1.0000
  C   C102      1.0  0.93895  0.49196  0.37430  1.0000
  H   H78       1.0  0.98058  0.52172  0.42590  1.0000
  H   H79       1.0  0.92821  0.49943  0.41409  1.0000
  H   H80       1.0  0.01853  0.51042  0.47590  1.0000
  N   N8        1.0  0.07545  0.53298  0.51242  1.0000
  O   O5        1.0  0.06572  0.50998  0.55866  1.0000
  O   O6        1.0  0.07169  0.55153  0.55478  1.0000
  N   N9        1.0  0.10977  0.54283  0.35196  1.0000
  H   H81       1.0  0.11392  0.53053  0.39684  1.0000
