data_image0
_chemical_formula_structural       C13H9C13H9C13H9C13H9NC5H3NC5H3NC5H3C5NH3C5NH3C5NH3C17H12C17H12C17H12C17H12C5NH3C5NH3C5NH3NC5H3NC5H3NC5H3
_chemical_formula_sum              "C180 H120 N12"
_cell_length_a       68.6381
_cell_length_b       68.6215
_cell_length_c       14.9758
_cell_angle_alpha    90
_cell_angle_beta     90
_cell_angle_gamma    120.004

_space_group_name_H-M_alt    "P 1"
_space_group_IT_number       1

loop_
  _space_group_symop_operation_xyz
  'x, y, z'

loop_
  _atom_site_type_symbol
  _atom_site_label
  _atom_site_symmetry_multiplicity
  _atom_site_fract_x
  _atom_site_fract_y
  _atom_site_fract_z
  _atom_site_occupancy
  C   C1        1.0  0.92614  0.86446  0.32673  1.0000
  C   C2        1.0  0.94975  0.91266  0.32403  1.0000
  C   C3        1.0  0.92875  0.90005  0.28057  1.0000
  C   C4        1.0  0.91717  0.87636  0.28174  1.0000
  C   C5        1.0  0.96106  0.93609  0.31957  1.0000
  C   C6        1.0  0.05484  0.02504  0.32520  1.0000
  C   C7        1.0  0.09091  0.02888  0.28620  1.0000
  C   C8        1.0  0.12647  0.06187  0.33239  1.0000
  C   C9        1.0  0.11459  0.04105  0.28709  1.0000
  C   C10       1.0  0.97141  0.03578  0.32950  1.0000
  C   C11       1.0  0.93480  0.03331  0.31351  1.0000
  C   C12       1.0  0.93135  0.06701  0.33445  1.0000
  C   C13       1.0  0.92168  0.04382  0.31440  1.0000
  H   H1        1.0  0.90191  0.86787  0.25031  1.0000
  H   H2        1.0  0.92162  0.90801  0.24767  1.0000
  H   H3        1.0  0.92723  0.01653  0.29833  1.0000
  H   H4        1.0  0.08298  0.01384  0.25282  1.0000
  H   H5        1.0  0.12309  0.03438  0.25508  1.0000
  H   H6        1.0  0.90483  0.03423  0.30131  1.0000
  H   H7        1.0  0.04806  0.01724  0.26778  1.0000
  H   H8        1.0  0.96007  0.94299  0.26243  1.0000
  H   H9        1.0  0.98456  0.04255  0.28839  1.0000
  C   C14       1.0  0.50725  0.34262  0.31651  1.0000
  C   C15       1.0  0.47418  0.29573  0.31645  1.0000
  C   C16       1.0  0.49489  0.30373  0.27127  1.0000
  C   C17       1.0  0.51112  0.32675  0.27137  1.0000
  C   C18       1.0  0.45895  0.27269  0.31675  1.0000
  C   C19       1.0  0.36565  0.18567  0.33576  1.0000
  C   C20       1.0  0.32959  0.18175  0.29565  1.0000
  C   C21       1.0  0.29402  0.14871  0.34143  1.0000
  C   C22       1.0  0.30590  0.16956  0.29635  1.0000
  C   C23       1.0  0.45138  0.17727  0.34987  1.0000
  C   C24       1.0  0.48867  0.18640  0.30317  1.0000
  C   C25       1.0  0.50286  0.16053  0.33260  1.0000
  C   C26       1.0  0.50582  0.18096  0.29717  1.0000
  H   H10       1.0  0.52613  0.33169  0.24001  1.0000
  H   H11       1.0  0.49861  0.29280  0.23921  1.0000
  H   H12       1.0  0.49146  0.20139  0.27719  1.0000
  H   H13       1.0  0.33754  0.19686  0.26275  1.0000
  H   H14       1.0  0.29740  0.17628  0.26465  1.0000
  H   H15       1.0  0.52071  0.19232  0.26781  1.0000
  H   H16       1.0  0.37260  0.19354  0.27864  1.0000
  H   H17       1.0  0.45772  0.26422  0.26096  1.0000
  H   H18       1.0  0.43943  0.17108  0.30340  1.0000
  C   C27       1.0  0.64857  0.16515  0.31742  1.0000
  C   C28       1.0  0.69544  0.17891  0.31762  1.0000
  C   C29       1.0  0.68746  0.19160  0.27211  1.0000
  C   C30       1.0  0.66447  0.18485  0.27212  1.0000
  C   C31       1.0  0.71846  0.18667  0.31785  1.0000
  C   C32       1.0  0.80321  0.17819  0.33608  1.0000
  C   C33       1.0  0.80592  0.14450  0.31761  1.0000
  C   C34       1.0  0.84175  0.14519  0.34038  1.0000
  C   C35       1.0  0.81858  0.13349  0.31839  1.0000
  C   C36       1.0  0.81400  0.27471  0.34911  1.0000
  C   C37       1.0  0.80522  0.30293  0.29985  1.0000
  C   C38       1.0  0.83080  0.34295  0.33147  1.0000
  C   C39       1.0  0.81067  0.32553  0.29383  1.0000
  H   H19       1.0  0.65956  0.19492  0.24052  1.0000
  H   H20       1.0  0.69841  0.20622  0.23991  1.0000
  H   H21       1.0  0.79043  0.29076  0.27233  1.0000
  H   H22       1.0  0.78917  0.13539  0.30185  1.0000
  H   H23       1.0  0.81054  0.11666  0.30409  1.0000
  H   H24       1.0  0.79951  0.32909  0.26291  1.0000
  H   H25       1.0  0.79290  0.17472  0.28419  1.0000
  H   H26       1.0  0.72690  0.19378  0.26184  1.0000
  H   H27       1.0  0.82014  0.26891  0.30260  1.0000
  C   C40       1.0  0.82620  0.48404  0.31632  1.0000
  C   C41       1.0  0.81221  0.51696  0.31704  1.0000
  C   C42       1.0  0.79952  0.49625  0.27183  1.0000
  C   C43       1.0  0.80639  0.48009  0.27155  1.0000
  C   C44       1.0  0.80429  0.53209  0.31781  1.0000
  C   C45       1.0  0.81056  0.62530  0.33611  1.0000
  C   C46       1.0  0.84268  0.66131  0.29518  1.0000
  C   C47       1.0  0.84526  0.69694  0.34028  1.0000
  C   C48       1.0  0.85418  0.68500  0.29537  1.0000
  C   C49       1.0  0.71651  0.53959  0.35095  1.0000
  C   C50       1.0  0.68833  0.50199  0.30738  1.0000
  C   C51       1.0  0.64825  0.48825  0.33374  1.0000
  C   C52       1.0  0.66571  0.48490  0.30125  1.0000
  H   H28       1.0  0.79632  0.46506  0.24027  1.0000
  H   H29       1.0  0.78482  0.49247  0.24013  1.0000
  H   H30       1.0  0.70054  0.49894  0.28349  1.0000
  H   H31       1.0  0.84979  0.65331  0.26240  1.0000
  H   H32       1.0  0.86937  0.69346  0.26343  1.0000
  H   H33       1.0  0.66216  0.46979  0.27391  1.0000
  H   H34       1.0  0.81138  0.61828  0.27905  1.0000
  H   H35       1.0  0.79701  0.53333  0.26214  1.0000
  H   H36       1.0  0.72227  0.55150  0.30431  1.0000
  N   N1        1.0  0.23465  0.12021  0.26463  1.0000
  C   C53       1.0  0.25746  0.13232  0.26259  1.0000
  C   C54       1.0  0.19827  0.09900  0.33487  1.0000
  C   C55       1.0  0.18660  0.09070  0.25328  1.0000
  C   C56       1.0  0.16293  0.07830  0.25258  1.0000
  C   C57       1.0  0.15047  0.07430  0.33238  1.0000
  H   H37       1.0  0.19507  0.09325  0.19432  1.0000
  H   H38       1.0  0.15486  0.07255  0.19273  1.0000
  H   H39       1.0  0.26524  0.13799  0.20228  1.0000
  N   N2        1.0  0.86504  0.10862  0.27494  1.0000
  C   C58       1.0  0.85257  0.11893  0.27274  1.0000
  C   C59       1.0  0.89226  0.09979  0.33650  1.0000
  C   C60       1.0  0.88955  0.08473  0.26665  1.0000
  C   C61       1.0  0.90230  0.07383  0.26626  1.0000
  C   C62       1.0  0.91807  0.07773  0.33470  1.0000
  H   H40       1.0  0.87847  0.08161  0.21559  1.0000
  H   H41       1.0  0.90029  0.06333  0.21414  1.0000
  H   H42       1.0  0.84209  0.11586  0.21956  1.0000
  N   N3        1.0  0.87599  0.75618  0.26188  1.0000
  C   C63       1.0  0.86531  0.73337  0.26046  1.0000
  C   C64       1.0  0.89126  0.79267  0.33118  1.0000
  C   C65       1.0  0.89450  0.80420  0.24931  1.0000
  C   C66       1.0  0.90584  0.82788  0.24795  1.0000
  C   C67       1.0  0.91447  0.84047  0.32737  1.0000
  H   H43       1.0  0.88847  0.79563  0.19062  1.0000
  H   H44       1.0  0.90807  0.83586  0.18792  1.0000
  H   H45       1.0  0.86309  0.72548  0.20032  1.0000
  C   C68       1.0  0.52066  0.15560  0.32673  1.0000
  C   C69       1.0  0.53191  0.15788  0.24499  1.0000
  C   C70       1.0  0.55120  0.15571  0.24127  1.0000
  C   C71       1.0  0.55987  0.15157  0.32031  1.0000
  C   C72       1.0  0.61439  0.16012  0.24115  1.0000
  N   N4        1.0  0.59331  0.15700  0.24595  1.0000
  H   H46       1.0  0.62228  0.16397  0.18052  1.0000
  H   H47       1.0  0.52646  0.16172  0.18753  1.0000
  H   H48       1.0  0.55926  0.15821  0.18135  1.0000
  C   C73       1.0  0.83572  0.36569  0.32575  1.0000
  C   C74       1.0  0.83372  0.37478  0.24385  1.0000
  C   C75       1.0  0.83592  0.39625  0.24016  1.0000
  C   C76       1.0  0.83985  0.40897  0.31934  1.0000
  C   C77       1.0  0.83131  0.45495  0.24001  1.0000
  N   N5        1.0  0.83444  0.43699  0.24486  1.0000
  H   H49       1.0  0.82740  0.45895  0.17941  1.0000
  H   H50       1.0  0.83009  0.36559  0.18620  1.0000
  H   H51       1.0  0.83365  0.40192  0.18007  1.0000
  C   C78       1.0  0.62552  0.47054  0.32752  1.0000
  C   C79       1.0  0.61666  0.45933  0.24566  1.0000
  C   C80       1.0  0.59520  0.44005  0.24165  1.0000
  C   C81       1.0  0.58231  0.43137  0.32051  1.0000
  C   C82       1.0  0.53641  0.37686  0.24065  1.0000
  N   N6        1.0  0.55434  0.39795  0.24572  1.0000
  H   H52       1.0  0.53243  0.36900  0.17994  1.0000
  H   H53       1.0  0.62603  0.46479  0.18841  1.0000
  H   H54       1.0  0.58968  0.43202  0.18165  1.0000
  C   C83       1.0  0.94715  0.87706  0.37003  1.0000
  C   C84       1.0  0.95887  0.90074  0.36799  1.0000
  C   C85       1.0  0.97238  0.94987  0.38789  1.0000
  C   C86       1.0  0.98297  0.97311  0.38209  1.0000
  C   C87       1.0  0.97026  0.98415  0.37913  1.0000
  C   C88       1.0  0.98088  0.00792  0.37898  1.0000
  C   C89       1.0  0.00467  0.02058  0.38335  1.0000
  C   C90       1.0  0.01768  0.00986  0.38567  1.0000
  C   C91       1.0  0.00667  0.98610  0.38591  1.0000
  C   C92       1.0  0.04088  0.02251  0.39295  1.0000
  C   C93       1.0  0.07827  0.03714  0.33024  1.0000
  C   C94       1.0  0.09016  0.05811  0.37473  1.0000
  C   C95       1.0  0.11384  0.07014  0.37654  1.0000
  C   C96       1.0  0.96774  0.01815  0.38068  1.0000
  C   C97       1.0  0.95808  0.04571  0.33249  1.0000
  C   C98       1.0  0.96790  0.06890  0.35160  1.0000
  C   C99       1.0  0.95469  0.07932  0.35323  1.0000
  H   H55       1.0  0.95443  0.86907  0.40160  1.0000
  H   H56       1.0  0.97429  0.90919  0.39820  1.0000
  H   H57       1.0  0.01599  0.97821  0.39002  1.0000
  H   H58       1.0  0.95303  0.97472  0.37833  1.0000
  H   H59       1.0  0.01262  0.03781  0.38609  1.0000
  H   H60       1.0  0.12181  0.08539  0.40827  1.0000
  H   H61       1.0  0.08169  0.06502  0.40532  1.0000
  H   H62       1.0  0.96247  0.09621  0.36625  1.0000
  H   H63       1.0  0.98477  0.07842  0.36470  1.0000
  H   H64       1.0  0.04713  0.02981  0.45148  1.0000
  H   H65       1.0  0.97335  0.94343  0.44608  1.0000
  H   H66       1.0  0.95451  0.01155  0.42151  1.0000
  C   C100      1.0  0.48647  0.33462  0.36137  1.0000
  C   C101      1.0  0.47011  0.31157  0.36076  1.0000
  C   C102      1.0  0.44834  0.26089  0.39029  1.0000
  C   C103      1.0  0.43727  0.23760  0.39201  1.0000
  C   C104      1.0  0.44998  0.22660  0.39654  1.0000
  C   C105      1.0  0.43942  0.20290  0.40167  1.0000
  C   C106      1.0  0.41564  0.19018  0.40346  1.0000
  C   C107      1.0  0.40260  0.20088  0.39895  1.0000
  C   C108      1.0  0.41357  0.22464  0.39400  1.0000
  C   C109      1.0  0.37936  0.18821  0.40447  1.0000
  C   C110      1.0  0.34221  0.17346  0.33965  1.0000
  C   C111      1.0  0.33031  0.15240  0.38347  1.0000
  C   C112      1.0  0.30663  0.14036  0.38508  1.0000
  C   C113      1.0  0.45287  0.19311  0.40680  1.0000
  C   C114      1.0  0.46802  0.17151  0.34487  1.0000
  C   C115      1.0  0.46483  0.15102  0.38002  1.0000
  C   C116      1.0  0.48218  0.14572  0.37474  1.0000
  H   H67       1.0  0.48295  0.34558  0.39416  1.0000
  H   H68       1.0  0.45523  0.30643  0.39352  1.0000
  H   H69       1.0  0.40425  0.23255  0.39258  1.0000
  H   H70       1.0  0.46723  0.23605  0.39610  1.0000
  H   H71       1.0  0.40779  0.17300  0.40875  1.0000
  H   H72       1.0  0.29867  0.12509  0.41663  1.0000
  H   H73       1.0  0.33877  0.14549  0.41400  1.0000
  H   H74       1.0  0.47944  0.13076  0.40066  1.0000
  H   H75       1.0  0.45000  0.13994  0.41040  1.0000
  H   H76       1.0  0.37287  0.18079  0.46258  1.0000
  H   H77       1.0  0.45050  0.26873  0.44838  1.0000
  H   H78       1.0  0.46587  0.20010  0.44884  1.0000
  C   C117      1.0  0.65654  0.15238  0.36263  1.0000
  C   C118      1.0  0.67958  0.15905  0.36221  1.0000
  C   C119      1.0  0.73032  0.18796  0.39133  1.0000
  C   C120      1.0  0.75360  0.20022  0.39264  1.0000
  C   C121      1.0  0.76454  0.22393  0.39721  1.0000
  C   C122      1.0  0.78824  0.23713  0.40097  1.0000
  C   C123      1.0  0.80102  0.22613  0.40131  1.0000
  C   C124      1.0  0.79042  0.20239  0.39664  1.0000
  C   C125      1.0  0.76664  0.18955  0.39312  1.0000
  C   C126      1.0  0.80337  0.19204  0.40007  1.0000
  C   C127      1.0  0.81599  0.16761  0.33906  1.0000
  C   C128      1.0  0.83921  0.17945  0.35982  1.0000
  C   C129      1.0  0.85182  0.16838  0.36098  1.0000
  C   C130      1.0  0.79802  0.26039  0.40562  1.0000
  C   C131      1.0  0.81979  0.29711  0.34386  1.0000
  C   C132      1.0  0.83997  0.31435  0.38129  1.0000
  C   C133      1.0  0.84530  0.33700  0.37586  1.0000
  H   H79       1.0  0.64556  0.13794  0.39557  1.0000
  H   H80       1.0  0.68469  0.14932  0.39520  1.0000
  H   H81       1.0  0.75875  0.17232  0.39161  1.0000
  H   H82       1.0  0.75506  0.23169  0.39755  1.0000
  H   H83       1.0  0.81822  0.23553  0.40535  1.0000
  H   H84       1.0  0.86863  0.17762  0.37522  1.0000
  H   H85       1.0  0.84724  0.19632  0.37351  1.0000
  H   H86       1.0  0.86004  0.34918  0.40343  1.0000
  H   H87       1.0  0.85082  0.31054  0.41338  1.0000
  H   H88       1.0  0.81352  0.19555  0.45244  1.0000
  H   H89       1.0  0.72253  0.18243  0.44963  1.0000
  H   H90       1.0  0.79107  0.26646  0.44754  1.0000
  C   C134      1.0  0.83896  0.50482  0.36120  1.0000
  C   C135      1.0  0.83218  0.52111  0.36100  1.0000
  C   C136      1.0  0.80312  0.54268  0.39147  1.0000
  C   C137      1.0  0.79092  0.55376  0.39346  1.0000
  C   C138      1.0  0.76721  0.54105  0.39804  1.0000
  C   C139      1.0  0.75409  0.55163  0.40305  1.0000
  C   C140      1.0  0.76515  0.57541  0.40463  1.0000
  C   C141      1.0  0.78890  0.58844  0.40007  1.0000
  C   C142      1.0  0.80167  0.57747  0.39524  1.0000
  C   C143      1.0  0.79948  0.61169  0.40518  1.0000
  C   C144      1.0  0.82180  0.64875  0.33954  1.0000
  C   C145      1.0  0.81269  0.66071  0.38319  1.0000
  C   C146      1.0  0.82434  0.68439  0.38432  1.0000
  C   C147      1.0  0.73086  0.53818  0.40813  1.0000
  C   C148      1.0  0.69410  0.52297  0.34615  1.0000
  C   C149      1.0  0.67678  0.52652  0.37829  1.0000
  C   C150      1.0  0.65411  0.50923  0.37304  1.0000
  H   H91       1.0  0.85348  0.50838  0.39377  1.0000
  H   H92       1.0  0.84190  0.53599  0.39380  1.0000
  H   H93       1.0  0.81890  0.58678  0.39366  1.0000
  H   H94       1.0  0.75940  0.52380  0.39766  1.0000
  H   H95       1.0  0.75584  0.58327  0.40976  1.0000
  H   H96       1.0  0.81707  0.69241  0.41573  1.0000
  H   H97       1.0  0.79734  0.65229  0.41397  1.0000
  H   H98       1.0  0.64185  0.51223  0.39668  1.0000
  H   H99       1.0  0.68053  0.54161  0.40638  1.0000
  H   H100      1.0  0.79864  0.61826  0.46324  1.0000
  H   H101      1.0  0.80895  0.54062  0.44937  1.0000
  H   H102      1.0  0.72484  0.52526  0.45056  1.0000
  C   C151      1.0  0.27002  0.13633  0.34204  1.0000
  C   C152      1.0  0.25775  0.12739  0.42194  1.0000
  C   C153      1.0  0.23406  0.11524  0.42154  1.0000
  C   C154      1.0  0.22222  0.11143  0.34013  1.0000
  C   C155      1.0  0.16285  0.08316  0.41205  1.0000
  N   N7        1.0  0.18568  0.09472  0.41030  1.0000
  H   H103      1.0  0.15492  0.08064  0.47224  1.0000
  H   H104      1.0  0.26596  0.12999  0.48160  1.0000
  H   H105      1.0  0.22572  0.10900  0.48052  1.0000
  C   C156      1.0  0.85459  0.13400  0.34133  1.0000
  C   C157      1.0  0.86995  0.13747  0.41090  1.0000
  C   C158      1.0  0.88249  0.12634  0.41109  1.0000
  C   C159      1.0  0.87995  0.11147  0.34072  1.0000
  C   C160      1.0  0.92018  0.09290  0.40299  1.0000
  N   N8        1.0  0.90751  0.10300  0.40132  1.0000
  H   H106      1.0  0.93098  0.09630  0.45529  1.0000
  H   H107      1.0  0.87189  0.14788  0.46321  1.0000
  H   H108      1.0  0.89334  0.12920  0.46281  1.0000
  C   C161      1.0  0.85687  0.72094  0.34028  1.0000
  C   C162      1.0  0.86033  0.73335  0.41990  1.0000
  C   C163      1.0  0.87183  0.75703  0.41886  1.0000
  C   C164      1.0  0.87974  0.76874  0.33709  1.0000
  C   C165      1.0  0.91105  0.82823  0.40735  1.0000
  N   N9        1.0  0.89974  0.80539  0.40623  1.0000
  H   H109      1.0  0.91659  0.83626  0.46729  1.0000
  H   H110      1.0  0.85479  0.72523  0.47979  1.0000
  H   H111      1.0  0.87403  0.76548  0.47764  1.0000
  N   N10       1.0  0.54823  0.14899  0.39738  1.0000
  C   C166      1.0  0.52915  0.15027  0.40316  1.0000
  C   C167      1.0  0.58095  0.15216  0.32224  1.0000
  C   C168      1.0  0.59090  0.14994  0.40156  1.0000
  C   C169      1.0  0.61293  0.15336  0.39964  1.0000
  C   C170      1.0  0.62540  0.15905  0.31918  1.0000
  H   H112      1.0  0.58274  0.14684  0.46153  1.0000
  H   H113      1.0  0.62021  0.15288  0.45860  1.0000
  H   H114      1.0  0.52216  0.14899  0.46469  1.0000
  N   N11       1.0  0.84219  0.39982  0.39656  1.0000
  C   C171      1.0  0.84082  0.37942  0.40238  1.0000
  C   C172      1.0  0.83930  0.42949  0.32115  1.0000
  C   C173      1.0  0.84153  0.44167  0.40045  1.0000
  C   C174      1.0  0.83810  0.46028  0.39848  1.0000
  C   C175      1.0  0.83240  0.46704  0.31802  1.0000
  H   H115      1.0  0.84463  0.43663  0.46042  1.0000
  H   H116      1.0  0.83857  0.46805  0.45743  1.0000
  H   H117      1.0  0.84196  0.37364  0.46397  1.0000
  N   N12       1.0  0.59127  0.44298  0.39770  1.0000
  C   C176      1.0  0.61164  0.46204  0.40379  1.0000
  C   C177      1.0  0.56181  0.41028  0.32213  1.0000
  C   C178      1.0  0.54960  0.40026  0.40132  1.0000
  C   C179      1.0  0.53102  0.37821  0.39912  1.0000
  C   C180      1.0  0.52429  0.36579  0.31852  1.0000
  H   H118      1.0  0.55462  0.40838  0.46137  1.0000
  H   H119      1.0  0.52322  0.37089  0.45797  1.0000
  H   H120      1.0  0.61730  0.46907  0.46531  1.0000
