data_image0
_chemical_formula_structural       C2HCO2HC3NHC5H4NC2NC2H2CO2HCNC2H2CO2HCNHC12H8NC18H12C4HC3NHCO2HC4HC3NHCO2HC4HCO2H
_chemical_formula_sum              "C72 H42 O12 N8"
_cell_length_a       32.5291
_cell_length_b       32.529
_cell_length_c       14.6845
_cell_angle_alpha    90
_cell_angle_beta     90
_cell_angle_gamma    120

_space_group_name_H-M_alt    "P 1"
_space_group_IT_number       1

loop_
  _space_group_symop_operation_xyz
  'x, y, z'

loop_
  _atom_site_type_symbol
  _atom_site_label
  _atom_site_symmetry_multiplicity
  _atom_site_fract_x
  _atom_site_fract_y
  _atom_site_fract_z
  _atom_site_occupancy
  C   C1        1.0  0.06821  0.55927  0.29008  1.0000
  C   C2        1.0  0.11872  0.58358  0.29131  1.0000
  H   H1        1.0  0.13699  0.60828  0.24179  1.0000
  C   C3        1.0  0.04592  0.57039  0.22146  1.0000
  O   O1        1.0  0.05188  0.56185  0.14307  1.0000
  O   O2        1.0  0.03701  0.60287  0.23103  1.0000
  H   H2        1.0  0.03439  0.61421  0.28426  1.0000
  C   C4        1.0  0.04219  0.52653  0.36129  1.0000
  C   C5        1.0  0.14482  0.57622  0.36030  1.0000
  C   C6        1.0  0.11717  0.54287  0.42803  1.0000
  N   N1        1.0  0.06897  0.52032  0.42533  1.0000
  H   H3        1.0  0.13278  0.53455  0.47964  1.0000
  C   C7        1.0  0.27351  0.63549  0.28228  1.0000
  C   C8        1.0  0.22335  0.61084  0.28083  1.0000
  C   C9        1.0  0.19618  0.60135  0.36182  1.0000
  C   C10       1.0  0.22207  0.61811  0.44437  1.0000
  C   C11       1.0  0.27222  0.64318  0.44584  1.0000
  H   H4        1.0  0.29169  0.64137  0.22247  1.0000
  H   H5        1.0  0.20675  0.59894  0.21944  1.0000
  H   H6        1.0  0.28947  0.65490  0.50670  1.0000
  H   H7        1.0  0.20454  0.61314  0.50474  1.0000
  N   N2        1.0  0.34944  0.67741  0.36714  1.0000
  C   C12       1.0  0.29876  0.65221  0.36483  1.0000
  C   C13       1.0  0.56078  0.45498  0.28918  1.0000
  N   N3        1.0  0.53628  0.47867  0.29330  1.0000
  C   C14       1.0  0.46756  0.51428  0.29012  1.0000
  C   C15       1.0  0.44326  0.54049  0.29134  1.0000
  H   H8        1.0  0.41854  0.53405  0.24185  1.0000
  H   H9        1.0  0.56368  0.44237  0.22727  1.0000
  C   C16       1.0  0.45642  0.48086  0.22153  1.0000
  O   O3        1.0  0.46493  0.49533  0.14312  1.0000
  O   O4        1.0  0.42394  0.43947  0.23117  1.0000
  H   H10       1.0  0.41263  0.42553  0.28442  1.0000
  C   C17       1.0  0.57185  0.11117  0.28918  1.0000
  N   N4        1.0  0.54817  0.06298  0.29330  1.0000
  C   C18       1.0  0.51255  0.95865  0.29010  1.0000
  C   C19       1.0  0.48634  0.90814  0.29133  1.0000
  H   H11       1.0  0.49277  0.88986  0.24181  1.0000
  H   H12       1.0  0.58443  0.12667  0.22727  1.0000
  C   C20       1.0  0.54596  0.98093  0.22149  1.0000
  O   O5        1.0  0.53147  0.97497  0.14309  1.0000
  O   O6        1.0  0.58735  0.98985  0.23108  1.0000
  H   H13       1.0  0.60130  0.99247  0.28431  1.0000
  C   C21       1.0  0.91567  0.46604  0.28918  1.0000
  N   N5        1.0  0.96387  0.49056  0.29328  1.0000
  H   H14       1.0  0.90018  0.46313  0.22725  1.0000
  C   C22       1.0  0.37464  0.65192  0.36484  1.0000
  C   C23       1.0  0.37494  0.72810  0.36484  1.0000
  C   C24       1.0  0.39134  0.64337  0.28227  1.0000
  C   C25       1.0  0.41599  0.61786  0.28083  1.0000
  C   C26       1.0  0.42550  0.60020  0.36182  1.0000
  C   C27       1.0  0.40876  0.60934  0.44438  1.0000
  C   C28       1.0  0.38369  0.63443  0.44585  1.0000
  C   C29       1.0  0.39244  0.75463  0.44585  1.0000
  C   C30       1.0  0.41751  0.80478  0.44438  1.0000
  C   C31       1.0  0.42664  0.83067  0.36183  1.0000
  C   C32       1.0  0.40896  0.80350  0.28085  1.0000
  C   C33       1.0  0.38346  0.75334  0.28228  1.0000
  H   H15       1.0  0.42788  0.61314  0.21944  1.0000
  H   H16       1.0  0.38545  0.65566  0.22247  1.0000
  H   H17       1.0  0.37199  0.63998  0.50672  1.0000
  H   H18       1.0  0.41374  0.59681  0.50476  1.0000
  H   H19       1.0  0.38691  0.73738  0.50671  1.0000
  H   H20       1.0  0.43009  0.82231  0.50475  1.0000
  H   H21       1.0  0.41368  0.82010  0.21945  1.0000
  H   H22       1.0  0.37116  0.73516  0.22248  1.0000
  N   N6        1.0  0.68278  0.34407  0.36274  1.0000
  C   C34       1.0  0.65709  0.36923  0.36391  1.0000
  C   C35       1.0  0.65762  0.29324  0.36392  1.0000
  C   C36       1.0  0.73361  0.36976  0.36391  1.0000
  C   C37       1.0  0.75899  0.39814  0.43918  1.0000
  C   C38       1.0  0.80913  0.42333  0.44039  1.0000
  C   C39       1.0  0.83642  0.42118  0.36687  1.0000
  C   C40       1.0  0.81033  0.39250  0.29161  1.0000
  C   C41       1.0  0.76016  0.36748  0.29000  1.0000
  C   C42       1.0  0.62873  0.36623  0.43920  1.0000
  C   C43       1.0  0.60352  0.39117  0.44039  1.0000
  C   C44       1.0  0.60567  0.42062  0.36687  1.0000
  C   C45       1.0  0.63434  0.42319  0.29160  1.0000
  C   C46       1.0  0.65936  0.39804  0.28999  1.0000
  C   C47       1.0  0.62880  0.26668  0.29000  1.0000
  C   C48       1.0  0.60366  0.21652  0.29161  1.0000
  C   C49       1.0  0.60623  0.19043  0.36688  1.0000
  C   C50       1.0  0.63569  0.21772  0.44038  1.0000
  C   C51       1.0  0.66063  0.26786  0.43918  1.0000
  H   H23       1.0  0.58269  0.38675  0.49577  1.0000
  H   H24       1.0  0.62614  0.34555  0.49374  1.0000
  H   H25       1.0  0.67970  0.40113  0.23453  1.0000
  H   H26       1.0  0.63823  0.44441  0.23717  1.0000
  H   H27       1.0  0.74088  0.40074  0.49370  1.0000
  H   H28       1.0  0.82554  0.44420  0.49573  1.0000
  H   H29       1.0  0.62569  0.28394  0.23457  1.0000
  H   H30       1.0  0.58241  0.19920  0.23721  1.0000
  H   H31       1.0  0.64013  0.20131  0.49575  1.0000
  H   H32       1.0  0.68133  0.28597  0.49372  1.0000
  H   H33       1.0  0.74291  0.34712  0.23456  1.0000
  H   H34       1.0  0.82765  0.38860  0.23720  1.0000
  C   C52       1.0  0.58007  0.44654  0.36863  1.0000
  C   C53       1.0  0.52736  0.49664  0.36985  1.0000
  C   C54       1.0  0.54650  0.48983  0.45235  1.0000
  C   C55       1.0  0.57218  0.46499  0.45011  1.0000
  H   H35       1.0  0.58591  0.46068  0.50975  1.0000
  C   C56       1.0  0.50033  0.52104  0.36129  1.0000
  C   C57       1.0  0.45063  0.57397  0.36031  1.0000
  C   C58       1.0  0.48400  0.57968  0.42801  1.0000
  N   N7        1.0  0.50655  0.55405  0.42531  1.0000
  H   H36       1.0  0.49233  0.60363  0.47960  1.0000
  C   C59       1.0  0.53846  0.50398  0.53605  1.0000
  O   O7        1.0  0.57284  0.53302  0.58000  1.0000
  O   O8        1.0  0.50181  0.47550  0.57643  1.0000
  H   H37       1.0  0.49486  0.47950  0.63286  1.0000
  C   C60       1.0  0.58032  0.13891  0.36864  1.0000
  C   C61       1.0  0.53022  0.03610  0.36985  1.0000
  C   C62       1.0  0.53705  0.06204  0.45237  1.0000
  C   C63       1.0  0.56189  0.11255  0.45013  1.0000
  H   H38       1.0  0.56622  0.13059  0.50978  1.0000
  C   C64       1.0  0.50582  0.98466  0.36131  1.0000
  C   C65       1.0  0.45288  0.88203  0.36032  1.0000
  C   C66       1.0  0.44719  0.90968  0.42804  1.0000
  N   N8        1.0  0.47283  0.95788  0.42535  1.0000
  H   H39       1.0  0.42325  0.89407  0.47966  1.0000
  C   C67       1.0  0.52294  0.03985  0.53608  1.0000
  O   O9        1.0  0.49393  0.04520  0.58010  1.0000
  O   O10       1.0  0.55144  0.03167  0.57637  1.0000
  H   H40       1.0  0.54745  0.02070  0.63279  1.0000
  C   C68       1.0  0.88794  0.44678  0.36863  1.0000
  C   C69       1.0  0.99075  0.49949  0.36984  1.0000
  C   C70       1.0  0.96481  0.48039  0.45236  1.0000
  C   C71       1.0  0.91430  0.45471  0.45011  1.0000
  H   H41       1.0  0.89626  0.44100  0.50977  1.0000
  C   C72       1.0  0.98700  0.48846  0.53606  1.0000
  O   O11       1.0  0.98165  0.45410  0.58008  1.0000
  O   O12       1.0  0.99517  0.52513  0.57636  1.0000
  H   H42       1.0  0.00614  0.53211  0.63278  1.0000
