data_image0
_chemical_formula_structural       NC2H3NHNC2H3NHNC2H4NHCNCNCNC18H12C3O3CNCNCNC18H12C3O3CNC2O2C2H3NHCNC2O2C2H3NHCNC2O2C2H2NH
_chemical_formula_sum              "N18 C69 H48 O12"
_cell_length_a       36.5861
_cell_length_b       36.5857
_cell_length_c       15.0756
_cell_angle_alpha    90
_cell_angle_beta     90
_cell_angle_gamma    120

_space_group_name_H-M_alt    "P 1"
_space_group_IT_number       1

loop_
  _space_group_symop_operation_xyz
  'x, y, z'

loop_
  _atom_site_type_symbol
  _atom_site_label
  _atom_site_symmetry_multiplicity
  _atom_site_fract_x
  _atom_site_fract_y
  _atom_site_fract_z
  _atom_site_occupancy
  N   N1        1.0  0.52067  0.49438  0.27785  1.0000
  C   C1        1.0  0.49680  0.51163  0.25564  1.0000
  C   C2        1.0  0.46940  0.51289  0.31957  1.0000
  H   H1        1.0  0.49837  0.52262  0.19262  1.0000
  H   H2        1.0  0.57565  0.43942  0.01789  1.0000
  H   H3        1.0  0.58618  0.49230  0.01246  1.0000
  N   N2        1.0  0.44576  0.53136  0.30147  1.0000
  H   H4        1.0  0.45396  0.54969  0.24948  1.0000
  N   N3        1.0  0.49829  0.02462  0.27911  1.0000
  C   C3        1.0  0.48060  0.98336  0.25783  1.0000
  C   C4        1.0  0.48148  0.95524  0.32045  1.0000
  H   H5        1.0  0.46755  0.97342  0.19642  1.0000
  H   H6        1.0  0.55146  0.13146  0.02092  1.0000
  H   H7        1.0  0.50076  0.08552  0.01719  1.0000
  N   N4        1.0  0.46253  0.91299  0.30321  1.0000
  H   H8        1.0  0.44366  0.90275  0.25206  1.0000
  N   N5        1.0  0.96869  0.47328  0.27751  1.0000
  C   C5        1.0  0.00980  0.49719  0.25525  1.0000
  C   C6        1.0  0.03850  0.52440  0.31934  1.0000
  H   H9        1.0  0.01918  0.49574  0.19214  1.0000
  H   H10       1.0  0.92728  0.48481  0.00031  1.0000
  H   H11       1.0  0.85859  0.41883  0.01868  1.0000
  H   H12       1.0  0.90036  0.40747  0.01282  1.0000
  N   N6        1.0  0.08061  0.54803  0.30126  1.0000
  H   H13       1.0  0.09072  0.53991  0.24914  1.0000
  C   C7        1.0  0.28667  0.64851  0.31554  1.0000
  N   N7        1.0  0.30295  0.62232  0.31578  1.0000
  C   C8        1.0  0.34508  0.63674  0.31547  1.0000
  N   N8        1.0  0.37127  0.67921  0.31608  1.0000
  C   C9        1.0  0.35687  0.70694  0.31586  1.0000
  N   N9        1.0  0.31439  0.69065  0.31617  1.0000
  C   C10       1.0  0.36126  0.60868  0.31960  1.0000
  C   C11       1.0  0.33469  0.56521  0.33828  1.0000
  C   C12       1.0  0.35133  0.53812  0.34759  1.0000
  C   C13       1.0  0.39497  0.55347  0.33664  1.0000
  C   C14       1.0  0.42150  0.59674  0.31708  1.0000
  C   C15       1.0  0.40494  0.62384  0.30873  1.0000
  C   C16       1.0  0.24244  0.63237  0.31968  1.0000
  C   C17       1.0  0.21389  0.58871  0.30849  1.0000
  C   C18       1.0  0.17023  0.57218  0.31674  1.0000
  C   C19       1.0  0.15353  0.59871  0.33661  1.0000
  C   C20       1.0  0.18184  0.64232  0.34789  1.0000
  C   C21       1.0  0.22557  0.65894  0.33862  1.0000
  C   C22       1.0  0.38497  0.75115  0.32043  1.0000
  C   C23       1.0  0.36984  0.77975  0.31071  1.0000
  C   C24       1.0  0.39703  0.82339  0.31934  1.0000
  C   C25       1.0  0.44037  0.84003  0.33802  1.0000
  C   C26       1.0  0.45569  0.81167  0.34789  1.0000
  C   C27       1.0  0.42851  0.76797  0.33829  1.0000
  H   H14       1.0  0.15095  0.54020  0.31129  1.0000
  H   H15       1.0  0.22446  0.56812  0.29539  1.0000
  H   H16       1.0  0.17089  0.66246  0.36276  1.0000
  H   H17       1.0  0.24495  0.69064  0.34833  1.0000
  H   H18       1.0  0.33863  0.76924  0.29837  1.0000
  H   H19       1.0  0.38434  0.84270  0.31484  1.0000
  H   H20       1.0  0.44087  0.74855  0.34694  1.0000
  H   H21       1.0  0.48685  0.82255  0.36181  1.0000
  H   H22       1.0  0.42553  0.65502  0.29580  1.0000
  H   H23       1.0  0.45348  0.60946  0.31178  1.0000
  H   H24       1.0  0.33119  0.50701  0.36224  1.0000
  H   H25       1.0  0.30297  0.55285  0.34775  1.0000
  C   C28       1.0  0.10955  0.58135  0.34990  1.0000
  C   C29       1.0  0.46718  0.88401  0.35111  1.0000
  C   C30       1.0  0.41234  0.52687  0.34991  1.0000
  O   O1        1.0  0.39484  0.49691  0.41378  1.0000
  O   O2        1.0  0.49752  0.89635  0.41409  1.0000
  O   O3        1.0  0.09712  0.59877  0.41399  1.0000
  C   C31       1.0  0.70599  0.34686  0.32319  1.0000
  N   N10       1.0  0.68942  0.37281  0.32346  1.0000
  C   C32       1.0  0.64724  0.35817  0.32336  1.0000
  N   N11       1.0  0.62129  0.31565  0.32331  1.0000
  C   C33       1.0  0.63594  0.28812  0.32302  1.0000
  N   N12       1.0  0.67845  0.30471  0.32312  1.0000
  C   C34       1.0  0.63087  0.38612  0.32451  1.0000
  C   C35       1.0  0.65787  0.43047  0.32789  1.0000
  C   C36       1.0  0.64140  0.45791  0.32948  1.0000
  C   C37       1.0  0.59735  0.44182  0.32900  1.0000
  C   C38       1.0  0.57034  0.39764  0.32433  1.0000
  C   C39       1.0  0.58680  0.37030  0.32226  1.0000
  C   C40       1.0  0.75029  0.36317  0.32419  1.0000
  C   C41       1.0  0.77859  0.40724  0.32229  1.0000
  C   C42       1.0  0.82238  0.42363  0.32424  1.0000
  C   C43       1.0  0.83949  0.39655  0.32854  1.0000
  C   C44       1.0  0.81149  0.35252  0.32868  1.0000
  C   C45       1.0  0.76760  0.33612  0.32715  1.0000
  C   C46       1.0  0.60805  0.24380  0.32387  1.0000
  C   C47       1.0  0.62398  0.21565  0.32029  1.0000
  C   C48       1.0  0.59676  0.17185  0.32224  1.0000
  C   C49       1.0  0.55258  0.15453  0.32833  1.0000
  C   C50       1.0  0.53638  0.18239  0.33001  1.0000
  C   C51       1.0  0.56371  0.22632  0.32839  1.0000
  H   H26       1.0  0.84157  0.45568  0.32054  1.0000
  H   H27       1.0  0.76781  0.42817  0.31897  1.0000
  H   H28       1.0  0.82274  0.33194  0.33144  1.0000
  H   H29       1.0  0.74849  0.30403  0.32841  1.0000
  H   H30       1.0  0.65569  0.22656  0.31568  1.0000
  H   H31       1.0  0.60973  0.15280  0.31722  1.0000
  H   H32       1.0  0.55063  0.24533  0.33089  1.0000
  H   H33       1.0  0.50455  0.17100  0.33407  1.0000
  H   H34       1.0  0.56591  0.33858  0.31859  1.0000
  H   H35       1.0  0.53830  0.38474  0.32025  1.0000
  H   H36       1.0  0.66194  0.48974  0.33251  1.0000
  H   H37       1.0  0.68996  0.44349  0.32938  1.0000
  C   C52       1.0  0.88379  0.41339  0.32874  1.0000
  C   C53       1.0  0.52532  0.11018  0.32896  1.0000
  C   C54       1.0  0.58045  0.46923  0.32918  1.0000
  O   O4        1.0  0.60238  0.50674  0.28668  1.0000
  O   O5        1.0  0.48738  0.09444  0.28820  1.0000
  O   O6        1.0  0.89934  0.39155  0.28575  1.0000
  C   C55       1.0  0.52107  0.47912  0.35996  1.0000
  N   N13       1.0  0.47009  0.49781  0.40162  1.0000
  C   C56       1.0  0.49420  0.48075  0.42600  1.0000
  C   C57       1.0  0.49203  0.46693  0.51274  1.0000
  O   O7        1.0  0.46474  0.46595  0.56147  1.0000
  O   O8        1.0  0.52907  0.47900  0.55302  1.0000
  C   C58       1.0  0.52950  0.44719  0.60895  1.0000
  C   C59       1.0  0.57485  0.46305  0.64166  1.0000
  H   H38       1.0  0.51887  0.41760  0.57280  1.0000
  H   H39       1.0  0.50904  0.44098  0.66659  1.0000
  H   H40       1.0  0.59579  0.46890  0.58526  1.0000
  N   N14       1.0  0.54362  0.45899  0.37129  1.0000
  H   H41       1.0  0.53095  0.43407  0.40906  1.0000
  C   C60       1.0  0.51619  0.04103  0.35914  1.0000
  N   N15       1.0  0.49924  0.97173  0.40048  1.0000
  C   C61       1.0  0.51699  0.01311  0.42367  1.0000
  C   C62       1.0  0.53348  0.02576  0.50841  1.0000
  O   O9        1.0  0.54010  0.00143  0.55214  1.0000
  O   O10       1.0  0.51824  0.04686  0.55342  1.0000
  C   C63       1.0  0.54874  0.08057  0.60856  1.0000
  C   C64       1.0  0.52890  0.10599  0.64508  1.0000
  H   H42       1.0  0.57710  0.10207  0.57107  1.0000
  H   H43       1.0  0.55788  0.06772  0.66437  1.0000
  H   H44       1.0  0.52010  0.11965  0.59041  1.0000
  N   N16       1.0  0.53617  0.08378  0.36991  1.0000
  H   H45       1.0  0.56142  0.09628  0.40670  1.0000
  C   C65       1.0  0.95307  0.47270  0.35976  1.0000
  N   N17       1.0  0.02278  0.52349  0.40156  1.0000
  C   C66       1.0  0.98161  0.49937  0.42599  1.0000
  C   C67       1.0  0.96992  0.50116  0.51298  1.0000
  O   O11       1.0  0.99638  0.52874  0.56105  1.0000
  O   O12       1.0  0.94454  0.46426  0.55313  1.0000
  C   C68       1.0  0.91270  0.46441  0.60939  1.0000
  C   C69       1.0  0.88273  0.41919  0.64222  1.0000
  H   H46       1.0  0.89403  0.47546  0.57344  1.0000
  H   H47       1.0  0.86732  0.39832  0.58589  1.0000
  N   N18       1.0  0.91040  0.45009  0.37124  1.0000
  H   H48       1.0  0.89816  0.46268  0.40928  1.0000
