data_image0
_chemical_formula_structural       NCHNCHNCHNC18H12NC18H12C2NC2OH3C2NC2OH3C2NC2OH3NCHNCHNCHNC18H12NC18H12C2NC2OH3C2NC2OH3C2NC2OH3NCHNCHNCHNC18H12NC18H12C2NC2OH3C2NC2OH3C2NC2OH3NCHNCHNCHNC18H12NC18H12C2NC2OH3C2NC2OH3C2NC2OH3
_chemical_formula_sum              "N32 C204 H144 O12"
_cell_length_a       50.1075
_cell_length_b       50.1076
_cell_length_c       14.5562
_cell_angle_alpha    90
_cell_angle_beta     90
_cell_angle_gamma    120

_space_group_name_H-M_alt    "P 1"
_space_group_IT_number       1

loop_
  _space_group_symop_operation_xyz
  'x, y, z'

loop_
  _atom_site_type_symbol
  _atom_site_label
  _atom_site_symmetry_multiplicity
  _atom_site_fract_x
  _atom_site_fract_y
  _atom_site_fract_z
  _atom_site_occupancy
  N   N1        1.0  0.26666  0.27643  0.29102  1.0000
  C   C1        1.0  0.28198  0.26052  0.28093  1.0000
  H   H1        1.0  0.28827  0.25791  0.21638  1.0000
  N   N2        1.0  0.26176  0.49787  0.29097  1.0000
  C   C2        1.0  0.27771  0.02910  0.28087  1.0000
  H   H2        1.0  0.28035  0.03799  0.21630  1.0000
  N   N3        1.0  0.04026  0.27155  0.29083  1.0000
  C   C3        1.0  0.50903  0.25625  0.28074  1.0000
  H   H3        1.0  0.50013  0.25004  0.21617  1.0000
  N   N4        1.0  0.18954  0.34859  0.35740  1.0000
  C   C4        1.0  0.20681  0.33262  0.36050  1.0000
  C   C5        1.0  0.20551  0.38182  0.36051  1.0000
  C   C6        1.0  0.15631  0.33132  0.36044  1.0000
  C   C7        1.0  0.14036  0.30977  0.43107  1.0000
  C   C8        1.0  0.10779  0.29285  0.43414  1.0000
  C   C9        1.0  0.08928  0.29740  0.36927  1.0000
  C   C10       1.0  0.10554  0.31873  0.29772  1.0000
  C   C11       1.0  0.13814  0.33513  0.29308  1.0000
  C   C12       1.0  0.22828  0.33816  0.43131  1.0000
  C   C13       1.0  0.24518  0.32249  0.43447  1.0000
  C   C14       1.0  0.24072  0.29950  0.36943  1.0000
  C   C15       1.0  0.21947  0.29450  0.29769  1.0000
  C   C16       1.0  0.20307  0.31071  0.29301  1.0000
  C   C17       1.0  0.22747  0.40000  0.29312  1.0000
  C   C18       1.0  0.24367  0.43260  0.29780  1.0000
  C   C19       1.0  0.23861  0.44885  0.36941  1.0000
  C   C20       1.0  0.21556  0.43032  0.43429  1.0000
  C   C21       1.0  0.19991  0.39775  0.43119  1.0000
  H   H4        1.0  0.26161  0.32891  0.48413  1.0000
  H   H5        1.0  0.23220  0.35429  0.48051  1.0000
  H   H6        1.0  0.18784  0.30604  0.24038  1.0000
  H   H7        1.0  0.21531  0.27843  0.24800  1.0000
  H   H8        1.0  0.15256  0.30577  0.48012  1.0000
  H   H9        1.0  0.09778  0.27637  0.48363  1.0000
  H   H10       1.0  0.23218  0.38943  0.24061  1.0000
  H   H11       1.0  0.25979  0.44451  0.24822  1.0000
  H   H12       1.0  0.20911  0.44032  0.48389  1.0000
  H   H13       1.0  0.18374  0.38554  0.48030  1.0000
  H   H14       1.0  0.14872  0.35043  0.24060  1.0000
  H   H15       1.0  0.09364  0.32296  0.24815  1.0000
  N   N5        1.0  0.35620  0.18192  0.35846  1.0000
  C   C22       1.0  0.33960  0.19842  0.35829  1.0000
  C   C23       1.0  0.33971  0.14882  0.35828  1.0000
  C   C24       1.0  0.38931  0.19853  0.35824  1.0000
  C   C25       1.0  0.40623  0.21439  0.27932  1.0000
  C   C26       1.0  0.43885  0.23053  0.27896  1.0000
  C   C27       1.0  0.45632  0.23196  0.35767  1.0000
  C   C28       1.0  0.43895  0.21623  0.43689  1.0000
  C   C29       1.0  0.40634  0.19976  0.43706  1.0000
  C   C30       1.0  0.32376  0.19951  0.27936  1.0000
  C   C31       1.0  0.30761  0.21599  0.27904  1.0000
  C   C32       1.0  0.30618  0.23200  0.35780  1.0000
  C   C33       1.0  0.32189  0.23034  0.43701  1.0000
  C   C34       1.0  0.33835  0.21419  0.43715  1.0000
  C   C35       1.0  0.32391  0.13179  0.43710  1.0000
  C   C36       1.0  0.30776  0.09918  0.43697  1.0000
  C   C37       1.0  0.30612  0.08181  0.35777  1.0000
  C   C38       1.0  0.32217  0.09927  0.27905  1.0000
  C   C39       1.0  0.33864  0.13189  0.27937  1.0000
  H   H16       1.0  0.29630  0.21555  0.22019  1.0000
  H   H17       1.0  0.32404  0.18828  0.22102  1.0000
  H   H18       1.0  0.34943  0.21384  0.49575  1.0000
  H   H19       1.0  0.32195  0.24145  0.49607  1.0000
  H   H20       1.0  0.39470  0.21412  0.22102  1.0000
  H   H21       1.0  0.44971  0.24188  0.22012  1.0000
  H   H22       1.0  0.32424  0.14322  0.49569  1.0000
  H   H23       1.0  0.29663  0.08814  0.49599  1.0000
  H   H24       1.0  0.32264  0.08840  0.22021  1.0000
  H   H25       1.0  0.34990  0.14341  0.22107  1.0000
  H   H26       1.0  0.39492  0.18867  0.49566  1.0000
  H   H27       1.0  0.45000  0.21615  0.49591  1.0000
  C   C40       1.0  0.25734  0.28266  0.37244  1.0000
  C   C41       1.0  0.28963  0.24891  0.35912  1.0000
  N   N6        1.0  0.27990  0.25481  0.44009  1.0000
  C   C42       1.0  0.26439  0.27059  0.45195  1.0000
  C   C43       1.0  0.25498  0.27213  0.54752  1.0000
  O   O1        1.0  0.22263  0.26130  0.55178  1.0000
  H   H28       1.0  0.26823  0.29575  0.57269  1.0000
  H   H29       1.0  0.26007  0.25784  0.59304  1.0000
  H   H30       1.0  0.21757  0.26331  0.61582  1.0000
  C   C44       1.0  0.25543  0.48231  0.37242  1.0000
  C   C45       1.0  0.28922  0.04835  0.35908  1.0000
  N   N7        1.0  0.28323  0.03273  0.44008  1.0000
  C   C46       1.0  0.26743  0.50144  0.45194  1.0000
  C   C47       1.0  0.26582  0.49049  0.54756  1.0000
  O   O2        1.0  0.27665  0.46897  0.55200  1.0000
  H   H31       1.0  0.24218  0.48011  0.57256  1.0000
  H   H32       1.0  0.28008  0.50987  0.59311  1.0000
  H   H33       1.0  0.27460  0.46191  0.61606  1.0000
  C   C48       1.0  0.05582  0.28079  0.37227  1.0000
  C   C49       1.0  0.48978  0.24852  0.35896  1.0000
  N   N8        1.0  0.50540  0.25815  0.43995  1.0000
  C   C50       1.0  0.03669  0.27364  0.45181  1.0000
  C   C51       1.0  0.04764  0.28293  0.54744  1.0000
  O   O3        1.0  0.06919  0.31528  0.55201  1.0000
  H   H34       1.0  0.05800  0.26964  0.57235  1.0000
  H   H35       1.0  0.02827  0.27780  0.59301  1.0000
  H   H36       1.0  0.07625  0.32025  0.61607  1.0000
  N   N9        1.0  0.26667  0.77643  0.29102  1.0000
  C   C52       1.0  0.28198  0.76052  0.28093  1.0000
  H   H37       1.0  0.28827  0.75791  0.21638  1.0000
  N   N10       1.0  0.26176  0.99787  0.29097  1.0000
  C   C53       1.0  0.27771  0.52909  0.28087  1.0000
  H   H38       1.0  0.28035  0.53800  0.21630  1.0000
  N   N11       1.0  0.04026  0.77155  0.29083  1.0000
  C   C54       1.0  0.50903  0.75626  0.28074  1.0000
  H   H39       1.0  0.50013  0.75004  0.21617  1.0000
  N   N12       1.0  0.18954  0.84859  0.35740  1.0000
  C   C55       1.0  0.20681  0.83262  0.36050  1.0000
  C   C56       1.0  0.20551  0.88182  0.36051  1.0000
  C   C57       1.0  0.15631  0.83132  0.36044  1.0000
  C   C58       1.0  0.14036  0.80977  0.43107  1.0000
  C   C59       1.0  0.10779  0.79285  0.43414  1.0000
  C   C60       1.0  0.08927  0.79740  0.36927  1.0000
  C   C61       1.0  0.10554  0.81874  0.29772  1.0000
  C   C62       1.0  0.13814  0.83513  0.29308  1.0000
  C   C63       1.0  0.22828  0.83816  0.43131  1.0000
  C   C64       1.0  0.24518  0.82249  0.43447  1.0000
  C   C65       1.0  0.24072  0.79950  0.36943  1.0000
  C   C66       1.0  0.21947  0.79450  0.29769  1.0000
  C   C67       1.0  0.20307  0.81071  0.29301  1.0000
  C   C68       1.0  0.22747  0.90000  0.29312  1.0000
  C   C69       1.0  0.24367  0.93260  0.29780  1.0000
  C   C70       1.0  0.23861  0.94885  0.36941  1.0000
  C   C71       1.0  0.21556  0.93032  0.43429  1.0000
  C   C72       1.0  0.19991  0.89775  0.43119  1.0000
  H   H40       1.0  0.26161  0.82891  0.48413  1.0000
  H   H41       1.0  0.23220  0.85429  0.48051  1.0000
  H   H42       1.0  0.18784  0.80605  0.24038  1.0000
  H   H43       1.0  0.21531  0.77843  0.24800  1.0000
  H   H44       1.0  0.15256  0.80577  0.48012  1.0000
  H   H45       1.0  0.09778  0.77637  0.48363  1.0000
  H   H46       1.0  0.23218  0.88943  0.24061  1.0000
  H   H47       1.0  0.25979  0.94451  0.24822  1.0000
  H   H48       1.0  0.20911  0.94032  0.48389  1.0000
  H   H49       1.0  0.18375  0.88554  0.48030  1.0000
  H   H50       1.0  0.14872  0.85043  0.24060  1.0000
  H   H51       1.0  0.09363  0.82296  0.24815  1.0000
  N   N13       1.0  0.35620  0.68192  0.35846  1.0000
  C   C73       1.0  0.33960  0.69842  0.35829  1.0000
  C   C74       1.0  0.33971  0.64882  0.35828  1.0000
  C   C75       1.0  0.38931  0.69853  0.35824  1.0000
  C   C76       1.0  0.40623  0.71439  0.27932  1.0000
  C   C77       1.0  0.43885  0.73053  0.27896  1.0000
  C   C78       1.0  0.45632  0.73196  0.35767  1.0000
  C   C79       1.0  0.43895  0.71623  0.43689  1.0000
  C   C80       1.0  0.40634  0.69976  0.43706  1.0000
  C   C81       1.0  0.32376  0.69951  0.27936  1.0000
  C   C82       1.0  0.30762  0.71599  0.27904  1.0000
  C   C83       1.0  0.30618  0.73201  0.35780  1.0000
  C   C84       1.0  0.32189  0.73034  0.43701  1.0000
  C   C85       1.0  0.33835  0.71419  0.43715  1.0000
  C   C86       1.0  0.32391  0.63179  0.43710  1.0000
  C   C87       1.0  0.30776  0.59918  0.43697  1.0000
  C   C88       1.0  0.30612  0.58181  0.35777  1.0000
  C   C89       1.0  0.32217  0.59927  0.27905  1.0000
  C   C90       1.0  0.33864  0.63189  0.27937  1.0000
  H   H52       1.0  0.29630  0.71555  0.22019  1.0000
  H   H53       1.0  0.32404  0.68828  0.22102  1.0000
  H   H54       1.0  0.34943  0.71384  0.49575  1.0000
  H   H55       1.0  0.32195  0.74145  0.49607  1.0000
  H   H56       1.0  0.39470  0.71412  0.22102  1.0000
  H   H57       1.0  0.44972  0.74188  0.22012  1.0000
  H   H58       1.0  0.32424  0.64322  0.49569  1.0000
  H   H59       1.0  0.29663  0.58814  0.49599  1.0000
  H   H60       1.0  0.32264  0.58840  0.22021  1.0000
  H   H61       1.0  0.34990  0.64341  0.22107  1.0000
  H   H62       1.0  0.39492  0.68867  0.49566  1.0000
  H   H63       1.0  0.45000  0.71615  0.49591  1.0000
  C   C91       1.0  0.25734  0.78266  0.37244  1.0000
  C   C92       1.0  0.28962  0.74891  0.35912  1.0000
  N   N14       1.0  0.27990  0.75481  0.44009  1.0000
  C   C93       1.0  0.26439  0.77059  0.45195  1.0000
  C   C94       1.0  0.25499  0.77213  0.54752  1.0000
  O   O4        1.0  0.22262  0.76130  0.55178  1.0000
  H   H64       1.0  0.26823  0.79576  0.57269  1.0000
  H   H65       1.0  0.26007  0.75784  0.59304  1.0000
  H   H66       1.0  0.21757  0.76331  0.61582  1.0000
  C   C95       1.0  0.25543  0.98231  0.37242  1.0000
  C   C96       1.0  0.28922  0.54835  0.35908  1.0000
  N   N15       1.0  0.28323  0.53273  0.44008  1.0000
  C   C97       1.0  0.26743  0.00144  0.45194  1.0000
  C   C98       1.0  0.26582  0.99049  0.54756  1.0000
  O   O5        1.0  0.27665  0.96897  0.55200  1.0000
  H   H67       1.0  0.24218  0.98011  0.57256  1.0000
  H   H68       1.0  0.28008  0.00987  0.59311  1.0000
  H   H69       1.0  0.27460  0.96191  0.61606  1.0000
  C   C99       1.0  0.05581  0.78079  0.37227  1.0000
  C   C100      1.0  0.48978  0.74852  0.35896  1.0000
  N   N16       1.0  0.50540  0.75814  0.43995  1.0000
  C   C101      1.0  0.03669  0.77364  0.45181  1.0000
  C   C102      1.0  0.04764  0.78293  0.54744  1.0000
  O   O6        1.0  0.06919  0.81528  0.55201  1.0000
  H   H70       1.0  0.05800  0.76964  0.57235  1.0000
  H   H71       1.0  0.02827  0.77780  0.59301  1.0000
  H   H72       1.0  0.07625  0.82025  0.61607  1.0000
  N   N17       1.0  0.76667  0.27643  0.29102  1.0000
  C   C103      1.0  0.78198  0.26052  0.28093  1.0000
  H   H73       1.0  0.78827  0.25791  0.21638  1.0000
  N   N18       1.0  0.76176  0.49787  0.29097  1.0000
  C   C104      1.0  0.77771  0.02910  0.28087  1.0000
  H   H74       1.0  0.78035  0.03799  0.21630  1.0000
  N   N19       1.0  0.54026  0.27155  0.29083  1.0000
  C   C105      1.0  0.00903  0.25625  0.28074  1.0000
  H   H75       1.0  0.00013  0.25004  0.21617  1.0000
  N   N20       1.0  0.68954  0.34859  0.35740  1.0000
  C   C106      1.0  0.70681  0.33262  0.36050  1.0000
  C   C107      1.0  0.70551  0.38182  0.36051  1.0000
  C   C108      1.0  0.65631  0.33132  0.36044  1.0000
  C   C109      1.0  0.64036  0.30977  0.43107  1.0000
  C   C110      1.0  0.60779  0.29285  0.43414  1.0000
  C   C111      1.0  0.58928  0.29740  0.36927  1.0000
  C   C112      1.0  0.60554  0.31873  0.29772  1.0000
  C   C113      1.0  0.63814  0.33513  0.29308  1.0000
  C   C114      1.0  0.72828  0.33816  0.43131  1.0000
  C   C115      1.0  0.74518  0.32249  0.43447  1.0000
  C   C116      1.0  0.74072  0.29950  0.36943  1.0000
  C   C117      1.0  0.71947  0.29450  0.29769  1.0000
  C   C118      1.0  0.70307  0.31071  0.29301  1.0000
  C   C119      1.0  0.72747  0.40000  0.29312  1.0000
  C   C120      1.0  0.74367  0.43260  0.29780  1.0000
  C   C121      1.0  0.73860  0.44885  0.36941  1.0000
  C   C122      1.0  0.71556  0.43032  0.43429  1.0000
  C   C123      1.0  0.69991  0.39775  0.43119  1.0000
  H   H76       1.0  0.76161  0.32891  0.48413  1.0000
  H   H77       1.0  0.73220  0.35429  0.48051  1.0000
  H   H78       1.0  0.68784  0.30604  0.24038  1.0000
  H   H79       1.0  0.71530  0.27843  0.24800  1.0000
  H   H80       1.0  0.65256  0.30577  0.48012  1.0000
  H   H81       1.0  0.59778  0.27637  0.48363  1.0000
  H   H82       1.0  0.73218  0.38943  0.24061  1.0000
  H   H83       1.0  0.75979  0.44451  0.24822  1.0000
  H   H84       1.0  0.70911  0.44032  0.48389  1.0000
  H   H85       1.0  0.68374  0.38554  0.48030  1.0000
  H   H86       1.0  0.64872  0.35043  0.24060  1.0000
  H   H87       1.0  0.59364  0.32296  0.24815  1.0000
  N   N21       1.0  0.85620  0.18192  0.35846  1.0000
  C   C124      1.0  0.83960  0.19842  0.35829  1.0000
  C   C125      1.0  0.83971  0.14882  0.35828  1.0000
  C   C126      1.0  0.88931  0.19853  0.35824  1.0000
  C   C127      1.0  0.90622  0.21439  0.27932  1.0000
  C   C128      1.0  0.93885  0.23053  0.27896  1.0000
  C   C129      1.0  0.95632  0.23196  0.35767  1.0000
  C   C130      1.0  0.93895  0.21623  0.43689  1.0000
  C   C131      1.0  0.90634  0.19976  0.43706  1.0000
  C   C132      1.0  0.82376  0.19951  0.27936  1.0000
  C   C133      1.0  0.80761  0.21599  0.27904  1.0000
  C   C134      1.0  0.80618  0.23200  0.35780  1.0000
  C   C135      1.0  0.82189  0.23034  0.43701  1.0000
  C   C136      1.0  0.83835  0.21419  0.43715  1.0000
  C   C137      1.0  0.82391  0.13179  0.43710  1.0000
  C   C138      1.0  0.80776  0.09918  0.43697  1.0000
  C   C139      1.0  0.80613  0.08181  0.35777  1.0000
  C   C140      1.0  0.82217  0.09927  0.27905  1.0000
  C   C141      1.0  0.83864  0.13189  0.27937  1.0000
  H   H88       1.0  0.79629  0.21555  0.22019  1.0000
  H   H89       1.0  0.82404  0.18828  0.22102  1.0000
  H   H90       1.0  0.84943  0.21384  0.49575  1.0000
  H   H91       1.0  0.82195  0.24145  0.49607  1.0000
  H   H92       1.0  0.89470  0.21412  0.22102  1.0000
  H   H93       1.0  0.94972  0.24188  0.22012  1.0000
  H   H94       1.0  0.82424  0.14322  0.49569  1.0000
  H   H95       1.0  0.79663  0.08814  0.49599  1.0000
  H   H96       1.0  0.82264  0.08840  0.22021  1.0000
  H   H97       1.0  0.84990  0.14341  0.22107  1.0000
  H   H98       1.0  0.89492  0.18867  0.49566  1.0000
  H   H99       1.0  0.95000  0.21615  0.49591  1.0000
  C   C142      1.0  0.75733  0.28266  0.37244  1.0000
  C   C143      1.0  0.78963  0.24891  0.35912  1.0000
  N   N22       1.0  0.77990  0.25481  0.44009  1.0000
  C   C144      1.0  0.76439  0.27059  0.45195  1.0000
  C   C145      1.0  0.75498  0.27213  0.54752  1.0000
  O   O7        1.0  0.72262  0.26130  0.55178  1.0000
  H   H100      1.0  0.76823  0.29575  0.57269  1.0000
  H   H101      1.0  0.76007  0.25784  0.59304  1.0000
  H   H102      1.0  0.71757  0.26331  0.61582  1.0000
  C   C146      1.0  0.75543  0.48231  0.37242  1.0000
  C   C147      1.0  0.78922  0.04835  0.35908  1.0000
  N   N23       1.0  0.78323  0.03273  0.44008  1.0000
  C   C148      1.0  0.76743  0.50144  0.45194  1.0000
  C   C149      1.0  0.76582  0.49049  0.54756  1.0000
  O   O8        1.0  0.77665  0.46897  0.55200  1.0000
  H   H103      1.0  0.74218  0.48011  0.57256  1.0000
  H   H104      1.0  0.78008  0.50987  0.59311  1.0000
  H   H105      1.0  0.77460  0.46191  0.61606  1.0000
  C   C150      1.0  0.55581  0.28079  0.37227  1.0000
  C   C151      1.0  0.98977  0.24852  0.35896  1.0000
  N   N24       1.0  0.00540  0.25815  0.43995  1.0000
  C   C152      1.0  0.53669  0.27364  0.45181  1.0000
  C   C153      1.0  0.54764  0.28293  0.54744  1.0000
  O   O9        1.0  0.56919  0.31528  0.55201  1.0000
  H   H106      1.0  0.55800  0.26964  0.57235  1.0000
  H   H107      1.0  0.52827  0.27780  0.59301  1.0000
  H   H108      1.0  0.57625  0.32025  0.61607  1.0000
  N   N25       1.0  0.76667  0.77643  0.29102  1.0000
  C   C154      1.0  0.78198  0.76052  0.28093  1.0000
  H   H109      1.0  0.78827  0.75791  0.21638  1.0000
  N   N26       1.0  0.76176  0.99787  0.29097  1.0000
  C   C155      1.0  0.77771  0.52909  0.28087  1.0000
  H   H110      1.0  0.78036  0.53800  0.21630  1.0000
  N   N27       1.0  0.54026  0.77155  0.29083  1.0000
  C   C156      1.0  0.00903  0.75626  0.28074  1.0000
  H   H111      1.0  0.00013  0.75004  0.21617  1.0000
  N   N28       1.0  0.68954  0.84859  0.35740  1.0000
  C   C157      1.0  0.70681  0.83262  0.36050  1.0000
  C   C158      1.0  0.70551  0.88182  0.36051  1.0000
  C   C159      1.0  0.65631  0.83132  0.36044  1.0000
  C   C160      1.0  0.64036  0.80977  0.43107  1.0000
  C   C161      1.0  0.60779  0.79285  0.43414  1.0000
  C   C162      1.0  0.58927  0.79740  0.36927  1.0000
  C   C163      1.0  0.60554  0.81874  0.29772  1.0000
  C   C164      1.0  0.63814  0.83513  0.29308  1.0000
  C   C165      1.0  0.72828  0.83816  0.43131  1.0000
  C   C166      1.0  0.74518  0.82249  0.43447  1.0000
  C   C167      1.0  0.74072  0.79950  0.36943  1.0000
  C   C168      1.0  0.71947  0.79450  0.29769  1.0000
  C   C169      1.0  0.70307  0.81071  0.29301  1.0000
  C   C170      1.0  0.72747  0.90000  0.29312  1.0000
  C   C171      1.0  0.74367  0.93260  0.29780  1.0000
  C   C172      1.0  0.73860  0.94885  0.36941  1.0000
  C   C173      1.0  0.71556  0.93032  0.43429  1.0000
  C   C174      1.0  0.69991  0.89775  0.43119  1.0000
  H   H112      1.0  0.76161  0.82891  0.48413  1.0000
  H   H113      1.0  0.73220  0.85429  0.48051  1.0000
  H   H114      1.0  0.68784  0.80605  0.24038  1.0000
  H   H115      1.0  0.71531  0.77843  0.24800  1.0000
  H   H116      1.0  0.65256  0.80577  0.48012  1.0000
  H   H117      1.0  0.59778  0.77637  0.48363  1.0000
  H   H118      1.0  0.73218  0.88943  0.24061  1.0000
  H   H119      1.0  0.75979  0.94451  0.24822  1.0000
  H   H120      1.0  0.70911  0.94032  0.48389  1.0000
  H   H121      1.0  0.68374  0.88554  0.48030  1.0000
  H   H122      1.0  0.64872  0.85043  0.24060  1.0000
  H   H123      1.0  0.59364  0.82296  0.24815  1.0000
  N   N29       1.0  0.85620  0.68192  0.35846  1.0000
  C   C175      1.0  0.83960  0.69842  0.35829  1.0000
  C   C176      1.0  0.83971  0.64882  0.35828  1.0000
  C   C177      1.0  0.88931  0.69853  0.35824  1.0000
  C   C178      1.0  0.90622  0.71439  0.27932  1.0000
  C   C179      1.0  0.93885  0.73053  0.27896  1.0000
  C   C180      1.0  0.95631  0.73196  0.35767  1.0000
  C   C181      1.0  0.93895  0.71623  0.43689  1.0000
  C   C182      1.0  0.90634  0.69976  0.43706  1.0000
  C   C183      1.0  0.82376  0.69951  0.27936  1.0000
  C   C184      1.0  0.80761  0.71599  0.27904  1.0000
  C   C185      1.0  0.80618  0.73201  0.35780  1.0000
  C   C186      1.0  0.82189  0.73034  0.43701  1.0000
  C   C187      1.0  0.83835  0.71419  0.43715  1.0000
  C   C188      1.0  0.82391  0.63179  0.43710  1.0000
  C   C189      1.0  0.80776  0.59918  0.43697  1.0000
  C   C190      1.0  0.80612  0.58181  0.35777  1.0000
  C   C191      1.0  0.82217  0.59927  0.27905  1.0000
  C   C192      1.0  0.83864  0.63189  0.27937  1.0000
  H   H124      1.0  0.79630  0.71555  0.22019  1.0000
  H   H125      1.0  0.82404  0.68828  0.22102  1.0000
  H   H126      1.0  0.84943  0.71384  0.49575  1.0000
  H   H127      1.0  0.82195  0.74145  0.49607  1.0000
  H   H128      1.0  0.89470  0.71412  0.22102  1.0000
  H   H129      1.0  0.94971  0.74188  0.22012  1.0000
  H   H130      1.0  0.82424  0.64322  0.49569  1.0000
  H   H131      1.0  0.79663  0.58814  0.49599  1.0000
  H   H132      1.0  0.82264  0.58840  0.22021  1.0000
  H   H133      1.0  0.84990  0.64341  0.22107  1.0000
  H   H134      1.0  0.89492  0.68867  0.49566  1.0000
  H   H135      1.0  0.95000  0.71615  0.49591  1.0000
  C   C193      1.0  0.75734  0.78266  0.37244  1.0000
  C   C194      1.0  0.78963  0.74891  0.35912  1.0000
  N   N30       1.0  0.77990  0.75481  0.44009  1.0000
  C   C195      1.0  0.76439  0.77059  0.45195  1.0000
  C   C196      1.0  0.75499  0.77213  0.54752  1.0000
  O   O10       1.0  0.72262  0.76130  0.55178  1.0000
  H   H136      1.0  0.76823  0.79576  0.57269  1.0000
  H   H137      1.0  0.76007  0.75784  0.59304  1.0000
  H   H138      1.0  0.71757  0.76331  0.61582  1.0000
  C   C197      1.0  0.75543  0.98231  0.37242  1.0000
  C   C198      1.0  0.78922  0.54835  0.35908  1.0000
  N   N31       1.0  0.78323  0.53273  0.44008  1.0000
  C   C199      1.0  0.76743  0.00144  0.45194  1.0000
  C   C200      1.0  0.76582  0.99049  0.54756  1.0000
  O   O11       1.0  0.77665  0.96897  0.55200  1.0000
  H   H139      1.0  0.74218  0.98011  0.57256  1.0000
  H   H140      1.0  0.78008  0.00987  0.59311  1.0000
  H   H141      1.0  0.77460  0.96191  0.61606  1.0000
  C   C201      1.0  0.55582  0.78079  0.37227  1.0000
  C   C202      1.0  0.98978  0.74852  0.35896  1.0000
  N   N32       1.0  0.00540  0.75814  0.43995  1.0000
  C   C203      1.0  0.53669  0.77364  0.45181  1.0000
  C   C204      1.0  0.54764  0.78293  0.54744  1.0000
  O   O12       1.0  0.56919  0.81528  0.55201  1.0000
  H   H142      1.0  0.55800  0.76964  0.57235  1.0000
  H   H143      1.0  0.52827  0.77780  0.59301  1.0000
  H   H144      1.0  0.57625  0.82025  0.61607  1.0000
