data_image0
_chemical_formula_structural       C17H12C17H12CNCHCNCHCNCHC13H9C13H9NC3H3NC3H3NC3H3
_chemical_formula_sum              "C75 H54 N6"
_cell_length_a       37.2942
_cell_length_b       37.2688
_cell_length_c       14.8699
_cell_angle_alpha    90
_cell_angle_beta     90
_cell_angle_gamma    120.036

_space_group_name_H-M_alt    "P 1"
_space_group_IT_number       1

loop_
  _space_group_symop_operation_xyz
  'x, y, z'

loop_
  _atom_site_type_symbol
  _atom_site_label
  _atom_site_symmetry_multiplicity
  _atom_site_fract_x
  _atom_site_fract_y
  _atom_site_fract_z
  _atom_site_occupancy
  C   C1        1.0  0.47759  0.89141  0.34537  1.0000
  C   C2        1.0  0.45311  0.84789  0.34703  1.0000
  C   C3        1.0  0.38959  0.75793  0.30194  1.0000
  C   C4        1.0  0.36468  0.71498  0.30824  1.0000
  C   C5        1.0  0.32091  0.69531  0.30771  1.0000
  C   C6        1.0  0.29579  0.65162  0.30806  1.0000
  C   C7        1.0  0.31542  0.62748  0.30730  1.0000
  C   C8        1.0  0.35908  0.64606  0.30781  1.0000
  C   C9        1.0  0.38322  0.68987  0.30744  1.0000
  C   C10       1.0  0.37710  0.62117  0.30129  1.0000
  C   C11       1.0  0.42761  0.60147  0.34356  1.0000
  C   C12       1.0  0.40357  0.55769  0.34610  1.0000
  C   C13       1.0  0.42258  0.53322  0.34440  1.0000
  C   C14       1.0  0.25286  0.63360  0.30179  1.0000
  C   C15       1.0  0.18263  0.58299  0.34391  1.0000
  C   C16       1.0  0.15737  0.53943  0.33776  1.0000
  C   C17       1.0  0.11387  0.52055  0.33606  1.0000
  H   H1        1.0  0.50912  0.90456  0.34592  1.0000
  H   H2        1.0  0.46758  0.83077  0.35136  1.0000
  H   H3        1.0  0.41487  0.70373  0.30445  1.0000
  H   H4        1.0  0.30708  0.71312  0.30496  1.0000
  H   H5        1.0  0.29762  0.59582  0.30425  1.0000
  H   H6        1.0  0.40418  0.50167  0.34505  1.0000
  H   H7        1.0  0.37197  0.54318  0.35056  1.0000
  H   H8        1.0  0.09656  0.48890  0.33303  1.0000
  H   H9        1.0  0.17042  0.52094  0.33515  1.0000
  H   H10       1.0  0.36445  0.59774  0.25781  1.0000
  H   H11       1.0  0.41300  0.76876  0.25843  1.0000
  H   H12       1.0  0.24208  0.64645  0.25890  1.0000
  C   C18       1.0  0.53573  0.11671  0.30190  1.0000
  C   C19       1.0  0.55875  0.16030  0.30650  1.0000
  C   C20       1.0  0.62381  0.25128  0.29313  1.0000
  C   C21       1.0  0.64832  0.29396  0.30191  1.0000
  C   C22       1.0  0.69202  0.31316  0.30141  1.0000
  C   C23       1.0  0.71718  0.35681  0.30182  1.0000
  C   C24       1.0  0.69801  0.38133  0.30120  1.0000
  C   C25       1.0  0.65439  0.36284  0.30171  1.0000
  C   C26       1.0  0.62986  0.31910  0.30129  1.0000
  C   C27       1.0  0.63628  0.38735  0.29276  1.0000
  C   C28       1.0  0.59141  0.41273  0.34693  1.0000
  C   C29       1.0  0.61029  0.45232  0.30584  1.0000
  C   C30       1.0  0.58973  0.47532  0.30117  1.0000
  C   C31       1.0  0.75982  0.37494  0.29293  1.0000
  C   C32       1.0  0.83013  0.42013  0.34670  1.0000
  C   C33       1.0  0.85482  0.46022  0.38345  1.0000
  C   C34       1.0  0.89835  0.48043  0.37983  1.0000
  H   H13       1.0  0.50691  0.10328  0.27353  1.0000
  H   H14       1.0  0.54584  0.17671  0.28083  1.0000
  H   H15       1.0  0.59823  0.30544  0.29798  1.0000
  H   H16       1.0  0.70564  0.29515  0.29819  1.0000
  H   H17       1.0  0.71601  0.41298  0.29777  1.0000
  H   H18       1.0  0.60514  0.50417  0.27285  1.0000
  H   H19       1.0  0.63964  0.46529  0.28033  1.0000
  H   H20       1.0  0.91479  0.50947  0.40708  1.0000
  H   H21       1.0  0.84131  0.47519  0.41369  1.0000
  H   H22       1.0  0.64234  0.40379  0.23650  1.0000
  H   H23       1.0  0.60746  0.24085  0.23677  1.0000
  H   H24       1.0  0.77018  0.36853  0.23711  1.0000
  C   C35       1.0  0.52896  0.48350  0.33736  1.0000
  N   N1        1.0  0.51279  0.53302  0.27576  1.0000
  C   C36       1.0  0.53427  0.51256  0.27011  1.0000
  H   H25       1.0  0.55320  0.51803  0.21609  1.0000
  C   C37       1.0  0.52743  0.04768  0.33839  1.0000
  N   N2        1.0  0.47787  0.98192  0.27687  1.0000
  C   C38       1.0  0.49834  0.02390  0.27121  1.0000
  H   H26       1.0  0.49289  0.03737  0.21715  1.0000
  C   C39       1.0  0.96331  0.48224  0.33773  1.0000
  N   N3        1.0  0.02894  0.49838  0.27607  1.0000
  C   C40       1.0  0.98700  0.47704  0.27024  1.0000
  H   H27       1.0  0.97347  0.45829  0.21593  1.0000
  C   C41       1.0  0.45913  0.91655  0.34277  1.0000
  C   C42       1.0  0.40936  0.82817  0.34463  1.0000
  C   C43       1.0  0.39093  0.85333  0.33997  1.0000
  C   C44       1.0  0.41546  0.89686  0.33816  1.0000
  C   C45       1.0  0.38444  0.78530  0.35132  1.0000
  C   C46       1.0  0.40968  0.62637  0.35044  1.0000
  C   C47       1.0  0.47120  0.61995  0.33876  1.0000
  C   C48       1.0  0.46618  0.55174  0.34163  1.0000
  C   C49       1.0  0.49018  0.59543  0.33682  1.0000
  C   C50       1.0  0.22545  0.60080  0.35050  1.0000
  C   C51       1.0  0.16305  0.60712  0.34802  1.0000
  C   C52       1.0  0.09432  0.54461  0.34240  1.0000
  C   C53       1.0  0.11958  0.58821  0.34650  1.0000
  H   H28       1.0  0.40104  0.91409  0.33624  1.0000
  H   H29       1.0  0.35936  0.84017  0.33863  1.0000
  H   H30       1.0  0.18025  0.63870  0.35344  1.0000
  H   H31       1.0  0.48962  0.65153  0.33735  1.0000
  H   H32       1.0  0.52183  0.60989  0.33490  1.0000
  H   H33       1.0  0.10655  0.60669  0.34817  1.0000
  H   H34       1.0  0.42244  0.64978  0.39393  1.0000
  H   H35       1.0  0.36105  0.77460  0.39482  1.0000
  H   H36       1.0  0.23606  0.58783  0.39347  1.0000
  C   C54       1.0  0.55092  0.09198  0.33960  1.0000
  C   C55       1.0  0.59828  0.18102  0.34773  1.0000
  C   C56       1.0  0.61348  0.15640  0.38560  1.0000
  C   C57       1.0  0.59024  0.11284  0.38185  1.0000
  C   C58       1.0  0.62164  0.22415  0.35564  1.0000
  C   C59       1.0  0.61117  0.38940  0.35500  1.0000
  C   C60       1.0  0.55154  0.39745  0.38457  1.0000
  C   C61       1.0  0.54975  0.46003  0.33862  1.0000
  C   C62       1.0  0.53123  0.42066  0.38074  1.0000
  C   C63       1.0  0.78704  0.40046  0.35469  1.0000
  C   C64       1.0  0.85074  0.40094  0.30672  1.0000
  C   C65       1.0  0.91907  0.46158  0.33876  1.0000
  C   C66       1.0  0.89430  0.42140  0.30219  1.0000
  H   H37       1.0  0.60272  0.09648  0.40992  1.0000
  H   H38       1.0  0.64177  0.17000  0.41671  1.0000
  H   H39       1.0  0.83428  0.37145  0.28187  1.0000
  H   H40       1.0  0.53679  0.36911  0.41558  1.0000
  H   H41       1.0  0.50234  0.40811  0.40864  1.0000
  H   H42       1.0  0.90768  0.40582  0.27459  1.0000
  H   H43       1.0  0.60524  0.37214  0.41014  1.0000
  H   H44       1.0  0.63881  0.23554  0.41087  1.0000
  H   H45       1.0  0.77573  0.40670  0.40944  1.0000
  N   N4        1.0  0.50235  0.47866  0.40508  1.0000
  C   C67       1.0  0.48049  0.49878  0.41211  1.0000
  C   C68       1.0  0.48577  0.52742  0.34315  1.0000
  C   C69       1.0  0.45498  0.49125  0.49374  1.0000
  H   H46       1.0  0.45911  0.47125  0.54120  1.0000
  H   H47       1.0  0.42226  0.47610  0.47608  1.0000
  H   H48       1.0  0.46389  0.52057  0.52740  1.0000
  N   N5        1.0  0.53227  0.02588  0.40609  1.0000
  C   C70       1.0  0.51213  0.98386  0.41314  1.0000
  C   C71       1.0  0.48348  0.96049  0.34424  1.0000
  C   C72       1.0  0.51966  0.96586  0.49474  1.0000
  H   H49       1.0  0.53971  0.99002  0.54215  1.0000
  H   H50       1.0  0.53474  0.94824  0.47703  1.0000
  H   H51       1.0  0.49038  0.94548  0.52848  1.0000
  N   N6        1.0  0.98509  0.50855  0.40592  1.0000
  C   C73       1.0  0.02709  0.53024  0.41314  1.0000
  C   C74       1.0  0.05041  0.52511  0.34391  1.0000
  C   C75       1.0  0.04507  0.55529  0.49539  1.0000
  H   H52       1.0  0.02092  0.55095  0.54300  1.0000
  H   H53       1.0  0.06277  0.58812  0.47861  1.0000
  H   H54       1.0  0.06535  0.54610  0.52852  1.0000
