data_image0
_chemical_formula_structural       CHONC3H2C3HC4HC2H3OC4HC2H3ON12CN2CNCNCNCNCNCNCNCNCNCNCNCNCNCNCNCN6C4HC2H3OC4HC2H3OC4HC2H3OC4HC2H3OC4HC2H3OC4HC2H3O
_chemical_formula_sum              "C72 H36 O9 N36"
_cell_length_a       30.2978
_cell_length_b       30.2978
_cell_length_c       14.8883
_cell_angle_alpha    90
_cell_angle_beta     90
_cell_angle_gamma    120

_space_group_name_H-M_alt    "P 1"
_space_group_IT_number       1

loop_
  _space_group_symop_operation_xyz
  'x, y, z'

loop_
  _atom_site_type_symbol
  _atom_site_label
  _atom_site_symmetry_multiplicity
  _atom_site_fract_x
  _atom_site_fract_y
  _atom_site_fract_z
  _atom_site_occupancy
  C   C1        1.0  0.03078  0.46110  0.36379  1.0000
  H   H1        1.0  0.01929  0.40778  0.20178  1.0000
  O   O1        1.0  0.04409  0.39535  0.36861  1.0000
  N   N1        1.0  0.03160  0.53702  0.40419  1.0000
  C   C2        1.0  0.05954  0.51428  0.38391  1.0000
  C   C3        1.0  0.05289  0.43414  0.32835  1.0000
  C   C4        1.0  0.05669  0.43271  0.23132  1.0000
  H   H2        1.0  0.08218  0.41842  0.21300  1.0000
  H   H3        1.0  0.07222  0.47081  0.20246  1.0000
  C   C5        1.0  0.11398  0.54556  0.37371  1.0000
  C   C6        1.0  0.95111  0.46255  0.39092  1.0000
  C   C7        1.0  0.97687  0.43586  0.36930  1.0000
  H   H4        1.0  0.95621  0.39831  0.35077  1.0000
  C   C8        1.0  0.54686  0.49046  0.39031  1.0000
  C   C9        1.0  0.57354  0.54290  0.36869  1.0000
  C   C10       1.0  0.54832  0.57159  0.36333  1.0000
  C   C11       1.0  0.49517  0.54721  0.38371  1.0000
  H   H5        1.0  0.61107  0.55976  0.34997  1.0000
  C   C12       1.0  0.57521  0.62056  0.32771  1.0000
  C   C13       1.0  0.57706  0.62655  0.23089  1.0000
  H   H6        1.0  0.60246  0.61470  0.20125  1.0000
  H   H7        1.0  0.59096  0.66639  0.21344  1.0000
  H   H8        1.0  0.53915  0.60378  0.20149  1.0000
  O   O2        1.0  0.61373  0.65064  0.36863  1.0000
  C   C14       1.0  0.51887  0.05822  0.39027  1.0000
  C   C15       1.0  0.46646  0.03246  0.36834  1.0000
  C   C16       1.0  0.43780  0.97856  0.36287  1.0000
  C   C17       1.0  0.46215  0.94979  0.38346  1.0000
  H   H9        1.0  0.44963  0.05315  0.34965  1.0000
  C   C18       1.0  0.38884  0.95646  0.32726  1.0000
  C   C19       1.0  0.38341  0.95221  0.23022  1.0000
  H   H10       1.0  0.39571  0.98946  0.20016  1.0000
  H   H11       1.0  0.34363  0.92649  0.21209  1.0000
  H   H12       1.0  0.40608  0.93673  0.20167  1.0000
  O   O3        1.0  0.35862  0.96551  0.36613  1.0000
  N   N2        1.0  0.27356  0.57136  0.28310  1.0000
  N   N3        1.0  0.31742  0.57432  0.28166  1.0000
  N   N4        1.0  0.43812  0.70414  0.28261  1.0000
  N   N5        1.0  0.43513  0.74503  0.28128  1.0000
  N   N6        1.0  0.30514  0.73586  0.28246  1.0000
  N   N7        1.0  0.26425  0.69199  0.28119  1.0000
  N   N8        1.0  0.74669  0.43420  0.28811  1.0000
  N   N9        1.0  0.70504  0.43578  0.28726  1.0000
  N   N10       1.0  0.57527  0.31433  0.28766  1.0000
  N   N11       1.0  0.57371  0.27109  0.28705  1.0000
  N   N12       1.0  0.69513  0.26273  0.28801  1.0000
  N   N13       1.0  0.73835  0.30440  0.28761  1.0000
  C   C20       1.0  0.18640  0.62651  0.33515  1.0000
  N   N14       1.0  0.13681  0.59772  0.36254  1.0000
  N   N15       1.0  0.14401  0.52346  0.36476  1.0000
  C   C21       1.0  0.19347  0.54965  0.33748  1.0000
  N   N16       1.0  0.21036  0.59950  0.32355  1.0000
  C   C22       1.0  0.38291  0.56186  0.33518  1.0000
  N   N17       1.0  0.41170  0.54104  0.36251  1.0000
  C   C23       1.0  0.46388  0.57036  0.37344  1.0000
  N   N18       1.0  0.48600  0.62247  0.36429  1.0000
  C   C24       1.0  0.45985  0.64576  0.33688  1.0000
  N   N19       1.0  0.40996  0.61282  0.32330  1.0000
  C   C25       1.0  0.44745  0.82283  0.33524  1.0000
  N   N20       1.0  0.46829  0.87247  0.36239  1.0000
  C   C26       1.0  0.43898  0.89533  0.37340  1.0000
  N   N21       1.0  0.38687  0.86534  0.36431  1.0000
  C   C27       1.0  0.36358  0.81591  0.33686  1.0000
  N   N22       1.0  0.39650  0.79894  0.32325  1.0000
  C   C28       1.0  0.81843  0.36378  0.34304  1.0000
  N   N23       1.0  0.86782  0.38704  0.37072  1.0000
  C   C29       1.0  0.89688  0.43916  0.38174  1.0000
  N   N24       1.0  0.87371  0.46815  0.37104  1.0000
  C   C30       1.0  0.82410  0.44711  0.34351  1.0000
  N   N25       1.0  0.80083  0.39624  0.33028  1.0000
  C   C31       1.0  0.64556  0.45657  0.34187  1.0000
  N   N26       1.0  0.62232  0.48264  0.36994  1.0000
  C   C32       1.0  0.57020  0.45957  0.38101  1.0000
  N   N27       1.0  0.54121  0.40742  0.37019  1.0000
  C   C33       1.0  0.56221  0.37888  0.34226  1.0000
  N   N28       1.0  0.61309  0.40650  0.32913  1.0000
  C   C34       1.0  0.55284  0.19083  0.34179  1.0000
  N   N29       1.0  0.52672  0.14151  0.36985  1.0000
  C   C35       1.0  0.54976  0.11244  0.38106  1.0000
  N   N30       1.0  0.60192  0.13559  0.37041  1.0000
  C   C36       1.0  0.63050  0.18512  0.34248  1.0000
  N   N31       1.0  0.60292  0.20841  0.32920  1.0000
  N   N32       1.0  0.98148  0.51333  0.40693  1.0000
  N   N33       1.0  0.47244  0.49653  0.40394  1.0000
  N   N34       1.0  0.49610  0.47007  0.40652  1.0000
  N   N35       1.0  0.51280  0.97773  0.40400  1.0000
  N   N36       1.0  0.53924  0.02785  0.40666  1.0000
  C   C37       1.0  0.32954  0.54287  0.32663  1.0000
  C   C38       1.0  0.28746  0.50040  0.36771  1.0000
  C   C39       1.0  0.23829  0.49674  0.36980  1.0000
  C   C40       1.0  0.23236  0.53639  0.32970  1.0000
  H   H13       1.0  0.29398  0.47563  0.40437  1.0000
  C   C41       1.0  0.19999  0.45799  0.42006  1.0000
  C   C42       1.0  0.19482  0.46796  0.51362  1.0000
  H   H14       1.0  0.23170  0.48505  0.54785  1.0000
  H   H15       1.0  0.16910  0.43235  0.54799  1.0000
  H   H16       1.0  0.17952  0.49365  0.51960  1.0000
  O   O4        1.0  0.16039  0.43084  0.37935  1.0000
  C   C43       1.0  0.46663  0.78863  0.32614  1.0000
  C   C44       1.0  0.50888  0.78886  0.36775  1.0000
  C   C45       1.0  0.51268  0.74344  0.36948  1.0000
  C   C46       1.0  0.47317  0.69792  0.32897  1.0000
  H   H17       1.0  0.53366  0.82015  0.40441  1.0000
  C   C47       1.0  0.55124  0.74378  0.42005  1.0000
  C   C48       1.0  0.54177  0.72850  0.51351  1.0000
  H   H18       1.0  0.52423  0.74771  0.54810  1.0000
  H   H19       1.0  0.57761  0.73891  0.54753  1.0000
  H   H20       1.0  0.51661  0.68740  0.51936  1.0000
  O   O5        1.0  0.57869  0.73181  0.37900  1.0000
  C   C49       1.0  0.22070  0.67987  0.32624  1.0000
  C   C50       1.0  0.22044  0.72193  0.36767  1.0000
  C   C51       1.0  0.26591  0.77111  0.36953  1.0000
  C   C52       1.0  0.31141  0.77712  0.32893  1.0000
  H   H21       1.0  0.18918  0.71536  0.40449  1.0000
  C   C53       1.0  0.26556  0.80929  0.42010  1.0000
  C   C54       1.0  0.28074  0.81455  0.51371  1.0000
  H   H22       1.0  0.26125  0.77764  0.54779  1.0000
  H   H23       1.0  0.27054  0.83999  0.54828  1.0000
  H   H24       1.0  0.32178  0.83017  0.51966  1.0000
  O   O6        1.0  0.27821  0.84928  0.38047  1.0000
  C   C55       1.0  0.69759  0.47013  0.33307  1.0000
  C   C56       1.0  0.74196  0.50996  0.37414  1.0000
  C   C57       1.0  0.78853  0.50828  0.37568  1.0000
  C   C58       1.0  0.78954  0.46606  0.33478  1.0000
  H   H25       1.0  0.73866  0.53659  0.41134  1.0000
  C   C59       1.0  0.82861  0.54408  0.42707  1.0000
  C   C60       1.0  0.83155  0.53337  0.52107  1.0000
  H   H26       1.0  0.79481  0.51992  0.55422  1.0000
  H   H27       1.0  0.85963  0.56794  0.55548  1.0000
  H   H28       1.0  0.84265  0.50438  0.52828  1.0000
  O   O7        1.0  0.86934  0.56770  0.38746  1.0000
  C   C61       1.0  0.53928  0.22930  0.33279  1.0000
  C   C62       1.0  0.49956  0.23396  0.37400  1.0000
  C   C63       1.0  0.50119  0.28219  0.37515  1.0000
  C   C64       1.0  0.54333  0.32536  0.33396  1.0000
  H   H29       1.0  0.47278  0.20398  0.41093  1.0000
  C   C65       1.0  0.46529  0.28648  0.42624  1.0000
  C   C66       1.0  0.47588  0.30022  0.52022  1.0000
  H   H30       1.0  0.48928  0.27696  0.55364  1.0000
  H   H31       1.0  0.44127  0.29377  0.55442  1.0000
  H   H32       1.0  0.50486  0.34032  0.52738  1.0000
  O   O8        1.0  0.44169  0.30351  0.38635  1.0000
  C   C67       1.0  0.78005  0.31176  0.33366  1.0000
  C   C68       1.0  0.77544  0.26731  0.37448  1.0000
  C   C69       1.0  0.72717  0.22074  0.37563  1.0000
  C   C70       1.0  0.68402  0.21977  0.33445  1.0000
  H   H33       1.0  0.80529  0.27054  0.41183  1.0000
  C   C71       1.0  0.72286  0.18050  0.42674  1.0000
  C   C72       1.0  0.70911  0.17811  0.52066  1.0000
  H   H34       1.0  0.73282  0.21485  0.55364  1.0000
  H   H35       1.0  0.71498  0.14976  0.55557  1.0000
  H   H36       1.0  0.66919  0.16764  0.52757  1.0000
  O   O9        1.0  0.70544  0.13969  0.38739  1.0000
