data_image0
_chemical_formula_structural       NC12H6C3H3C6H6C6H6C6H6C4H3CH3NC4H3CH3NC4H3CH3NC4H3CH3NC4H3CH3NC4H3CH3NC6H6NC12H6C3H3NC12H6C3H3NC12H6C3H3C4H3CH3NC4H3CH3NC4H3CH3NC4H3CH3NC4H3CH3NC4H3CH3N
_chemical_formula_sum              "N16 C144 H132"
_cell_length_a       50.5216
_cell_length_b       50.5208
_cell_length_c       14.8195
_cell_angle_alpha    90
_cell_angle_beta     90
_cell_angle_gamma    120

_space_group_name_H-M_alt    "P 1"
_space_group_IT_number       1

loop_
  _space_group_symop_operation_xyz
  'x, y, z'

loop_
  _atom_site_type_symbol
  _atom_site_label
  _atom_site_symmetry_multiplicity
  _atom_site_fract_x
  _atom_site_fract_y
  _atom_site_fract_z
  _atom_site_occupancy
  N   N1        1.0  0.00239  0.00273  0.34026  1.0000
  C   C1        1.0  0.98808  0.02112  0.33519  1.0000
  C   C2        1.0  0.98400  0.97002  0.33519  1.0000
  C   C3        1.0  0.03510  0.01705  0.33519  1.0000
  C   C4        1.0  0.94629  0.90429  0.32505  1.0000
  C   C5        1.0  0.94699  0.92351  0.25422  1.0000
  C   C6        1.0  0.96561  0.95561  0.25883  1.0000
  C   C7        1.0  0.96004  0.05881  0.32505  1.0000
  C   C8        1.0  0.97857  0.05813  0.25423  1.0000
  C   C9        1.0  0.99205  0.03950  0.25883  1.0000
  C   C10       1.0  0.10083  0.04508  0.32503  1.0000
  C   C11       1.0  0.08162  0.02655  0.25421  1.0000
  C   C12       1.0  0.04951  0.01307  0.25883  1.0000
  H   H1        1.0  0.93368  0.91423  0.19807  1.0000
  H   H2        1.0  0.96539  0.96861  0.20624  1.0000
  H   H3        1.0  0.00528  0.03974  0.20626  1.0000
  H   H4        1.0  0.98260  0.07144  0.19809  1.0000
  H   H5        1.0  0.09090  0.02253  0.19805  1.0000
  H   H6        1.0  0.03652  0.99985  0.20624  1.0000
  C   C13       1.0  0.13250  0.05652  0.32023  1.0000
  C   C14       1.0  0.94861  0.07905  0.32031  1.0000
  C   C15       1.0  0.92608  0.87263  0.32026  1.0000
  H   H7        1.0  0.13969  0.04388  0.28859  1.0000
  H   H8        1.0  0.96125  0.09888  0.28867  1.0000
  H   H9        1.0  0.90626  0.86543  0.28857  1.0000
  C   C16       1.0  0.46004  0.19294  0.28990  1.0000
  C   C17       1.0  0.48575  0.18905  0.29733  1.0000
  C   C18       1.0  0.46593  0.26343  0.27215  1.0000
  C   C19       1.0  0.48720  0.29498  0.27498  1.0000
  C   C20       1.0  0.37953  0.19663  0.28189  1.0000
  C   C21       1.0  0.34730  0.17830  0.28512  1.0000
  H   H10       1.0  0.45056  0.19129  0.22769  1.0000
  H   H11       1.0  0.49396  0.18430  0.24016  1.0000
  H   H12       1.0  0.46562  0.25111  0.21700  1.0000
  H   H13       1.0  0.50124  0.30488  0.22062  1.0000
  H   H14       1.0  0.38965  0.20866  0.22439  1.0000
  H   H15       1.0  0.33488  0.17723  0.22927  1.0000
  C   C22       1.0  0.81206  0.27010  0.28991  1.0000
  C   C23       1.0  0.81597  0.29972  0.29734  1.0000
  C   C24       1.0  0.74166  0.20549  0.27202  1.0000
  C   C25       1.0  0.71010  0.19523  0.27490  1.0000
  C   C26       1.0  0.80849  0.18594  0.28187  1.0000
  C   C27       1.0  0.82685  0.17207  0.28514  1.0000
  H   H16       1.0  0.81377  0.26228  0.22775  1.0000
  H   H17       1.0  0.82078  0.31268  0.24016  1.0000
  H   H18       1.0  0.75396  0.21751  0.21688  1.0000
  H   H19       1.0  0.70020  0.19936  0.22056  1.0000
  H   H20       1.0  0.79648  0.18402  0.22433  1.0000
  H   H21       1.0  0.82791  0.16069  0.22935  1.0000
  C   C28       1.0  0.73499  0.54504  0.28989  1.0000
  C   C29       1.0  0.70540  0.51931  0.29727  1.0000
  C   C30       1.0  0.79960  0.53921  0.27201  1.0000
  C   C31       1.0  0.80985  0.51790  0.27493  1.0000
  C   C32       1.0  0.81917  0.62562  0.28187  1.0000
  C   C33       1.0  0.83305  0.65784  0.28514  1.0000
  H   H22       1.0  0.74282  0.55451  0.22767  1.0000
  H   H23       1.0  0.69243  0.51113  0.24012  1.0000
  H   H24       1.0  0.78759  0.53950  0.21686  1.0000
  H   H25       1.0  0.80573  0.50388  0.22057  1.0000
  H   H26       1.0  0.82107  0.61551  0.22433  1.0000
  H   H27       1.0  0.84439  0.67027  0.22929  1.0000
  C   C34       1.0  0.18382  0.09651  0.34889  1.0000
  C   C35       1.0  0.20048  0.10998  0.26785  1.0000
  C   C36       1.0  0.23325  0.12545  0.26830  1.0000
  C   C37       1.0  0.25201  0.13835  0.18425  1.0000
  H   H28       1.0  0.23900  0.13350  0.12203  1.0000
  H   H29       1.0  0.26718  0.12895  0.17578  1.0000
  H   H30       1.0  0.26591  0.16316  0.19024  1.0000
  C   C38       1.0  0.18387  0.10899  0.18301  1.0000
  H   H31       1.0  0.15937  0.09953  0.19103  1.0000
  H   H32       1.0  0.18712  0.09517  0.13241  1.0000
  H   H33       1.0  0.19270  0.13213  0.15706  1.0000
  N   N2        1.0  0.15293  0.08283  0.35115  1.0000
  C   C39       1.0  0.90861  0.09036  0.34889  1.0000
  C   C40       1.0  0.89515  0.09358  0.26785  1.0000
  C   C41       1.0  0.87968  0.11087  0.26830  1.0000
  C   C42       1.0  0.86680  0.11675  0.18426  1.0000
  H   H34       1.0  0.87166  0.10860  0.12203  1.0000
  H   H35       1.0  0.87620  0.14132  0.17584  1.0000
  H   H36       1.0  0.84198  0.10584  0.19019  1.0000
  C   C43       1.0  0.89616  0.07798  0.18299  1.0000
  H   H37       1.0  0.90562  0.06293  0.19099  1.0000
  H   H38       1.0  0.90999  0.09506  0.13243  1.0000
  H   H39       1.0  0.87303  0.06367  0.15700  1.0000
  N   N3        1.0  0.92229  0.07316  0.35116  1.0000
  C   C44       1.0  0.91477  0.82131  0.34893  1.0000
  C   C45       1.0  0.91157  0.80464  0.26790  1.0000
  C   C46       1.0  0.89427  0.77188  0.26834  1.0000
  C   C47       1.0  0.88841  0.75312  0.18430  1.0000
  H   H40       1.0  0.89656  0.76613  0.12208  1.0000
  H   H41       1.0  0.86384  0.73795  0.17584  1.0000
  H   H42       1.0  0.89932  0.73922  0.19026  1.0000
  C   C48       1.0  0.92719  0.82126  0.18306  1.0000
  H   H43       1.0  0.94224  0.84576  0.19107  1.0000
  H   H44       1.0  0.91012  0.81801  0.13247  1.0000
  H   H45       1.0  0.94149  0.81242  0.15710  1.0000
  N   N4        1.0  0.93196  0.85220  0.35120  1.0000
  C   C49       1.0  0.62274  0.18418  0.34385  1.0000
  C   C50       1.0  0.60954  0.18683  0.26176  1.0000
  C   C51       1.0  0.58017  0.18459  0.26303  1.0000
  C   C52       1.0  0.62633  0.19223  0.17395  1.0000
  H   H46       1.0  0.64825  0.19313  0.17927  1.0000
  H   H47       1.0  0.63087  0.21394  0.14484  1.0000
  H   H48       1.0  0.61260  0.17384  0.12671  1.0000
  C   C53       1.0  0.56674  0.18839  0.17688  1.0000
  H   H49       1.0  0.54433  0.18629  0.18425  1.0000
  H   H50       1.0  0.56408  0.17103  0.12820  1.0000
  H   H51       1.0  0.58178  0.21098  0.14839  1.0000
  N   N5        1.0  0.65147  0.18912  0.34217  1.0000
  C   C54       1.0  0.82093  0.44161  0.34384  1.0000
  C   C55       1.0  0.81827  0.42576  0.26176  1.0000
  C   C56       1.0  0.82050  0.39862  0.26302  1.0000
  C   C57       1.0  0.81287  0.43715  0.17395  1.0000
  H   H52       1.0  0.81198  0.45817  0.17928  1.0000
  H   H53       1.0  0.79116  0.41999  0.14484  1.0000
  H   H54       1.0  0.83126  0.44181  0.12671  1.0000
  C   C58       1.0  0.81669  0.38139  0.17686  1.0000
  H   H55       1.0  0.81880  0.36109  0.18423  1.0000
  H   H56       1.0  0.83406  0.39609  0.12818  1.0000
  H   H57       1.0  0.79411  0.37385  0.14839  1.0000
  N   N6        1.0  0.81598  0.46540  0.34219  1.0000
  C   C59       1.0  0.56349  0.38236  0.34387  1.0000
  C   C60       1.0  0.57934  0.39556  0.26178  1.0000
  C   C61       1.0  0.60647  0.42493  0.26305  1.0000
  C   C62       1.0  0.56795  0.37876  0.17398  1.0000
  H   H58       1.0  0.54694  0.35685  0.17931  1.0000
  H   H59       1.0  0.58512  0.37423  0.14486  1.0000
  H   H60       1.0  0.56328  0.39249  0.12673  1.0000
  C   C63       1.0  0.62370  0.43836  0.17688  1.0000
  H   H61       1.0  0.64400  0.46077  0.18425  1.0000
  H   H62       1.0  0.60900  0.44102  0.12821  1.0000
  H   H63       1.0  0.63125  0.42333  0.14839  1.0000
  N   N7        1.0  0.53971  0.35362  0.34222  1.0000
  C   C64       1.0  0.98359  0.95099  0.40586  1.0000
  C   C65       1.0  0.96521  0.91877  0.40084  1.0000
  C   C66       1.0  0.96946  0.02153  0.40588  1.0000
  C   C67       1.0  0.95563  0.03993  0.40089  1.0000
  C   C68       1.0  0.05414  0.03566  0.40587  1.0000
  C   C69       1.0  0.08635  0.04950  0.40085  1.0000
  H   H64       1.0  0.99659  0.96066  0.46218  1.0000
  H   H65       1.0  0.96517  0.90596  0.45438  1.0000
  H   H66       1.0  0.96614  0.00854  0.46221  1.0000
  H   H67       1.0  0.94285  0.03995  0.45441  1.0000
  H   H68       1.0  0.04447  0.03899  0.46219  1.0000
  H   H69       1.0  0.09917  0.06227  0.45439  1.0000
  N   N8        1.0  0.43062  0.21572  0.35045  1.0000
  C   C70       1.0  0.44678  0.24834  0.34669  1.0000
  C   C71       1.0  0.44974  0.20273  0.36451  1.0000
  C   C72       1.0  0.39797  0.19803  0.35561  1.0000
  C   C73       1.0  0.50203  0.19509  0.37963  1.0000
  C   C74       1.0  0.49066  0.20334  0.45539  1.0000
  C   C75       1.0  0.46489  0.20701  0.44800  1.0000
  C   C76       1.0  0.48976  0.31252  0.35229  1.0000
  C   C77       1.0  0.46963  0.29770  0.42532  1.0000
  C   C78       1.0  0.44867  0.26600  0.42290  1.0000
  C   C79       1.0  0.33236  0.16043  0.36214  1.0000
  C   C80       1.0  0.35089  0.16203  0.43607  1.0000
  C   C81       1.0  0.38301  0.18076  0.43329  1.0000
  H   H70       1.0  0.50228  0.20882  0.51538  1.0000
  H   H71       1.0  0.45892  0.21556  0.50192  1.0000
  H   H72       1.0  0.43584  0.25551  0.47889  1.0000
  H   H73       1.0  0.47102  0.30962  0.48271  1.0000
  H   H74       1.0  0.34111  0.14916  0.49264  1.0000
  H   H75       1.0  0.39560  0.18107  0.48770  1.0000
  C   C82       1.0  0.30098  0.13947  0.36316  1.0000
  C   C83       1.0  0.51107  0.34353  0.35646  1.0000
  C   C84       1.0  0.53058  0.19725  0.38468  1.0000
  H   H76       1.0  0.29437  0.11785  0.37835  1.0000
  H   H77       1.0  0.50390  0.35803  0.37250  1.0000
  H   H78       1.0  0.54687  0.21458  0.41976  1.0000
  N   N9        1.0  0.78937  0.21792  0.35029  1.0000
  C   C85       1.0  0.75675  0.20146  0.34658  1.0000
  C   C86       1.0  0.80233  0.25002  0.36457  1.0000
  C   C87       1.0  0.80707  0.20298  0.35556  1.0000
  C   C88       1.0  0.80997  0.30998  0.37964  1.0000
  C   C89       1.0  0.80168  0.29033  0.45536  1.0000
  C   C90       1.0  0.79809  0.26091  0.44805  1.0000
  C   C91       1.0  0.69257  0.18027  0.35227  1.0000
  C   C92       1.0  0.70741  0.17500  0.42533  1.0000
  C   C93       1.0  0.73911  0.18570  0.42283  1.0000
  C   C94       1.0  0.84469  0.17499  0.36221  1.0000
  C   C95       1.0  0.84305  0.19190  0.43614  1.0000
  C   C96       1.0  0.82430  0.20528  0.43330  1.0000
  H   H79       1.0  0.79628  0.29651  0.51543  1.0000
  H   H80       1.0  0.78952  0.24639  0.50193  1.0000
  H   H81       1.0  0.74960  0.18340  0.47886  1.0000
  H   H82       1.0  0.69549  0.16447  0.48272  1.0000
  H   H83       1.0  0.85590  0.19499  0.49277  1.0000
  H   H84       1.0  0.82398  0.21757  0.48768  1.0000
  C   C97       1.0  0.86563  0.16455  0.36337  1.0000
  C   C98       1.0  0.66156  0.17058  0.35645  1.0000
  C   C99       1.0  0.80783  0.33637  0.38471  1.0000
  H   H85       1.0  0.88724  0.17955  0.37864  1.0000
  H   H86       1.0  0.64707  0.14891  0.37260  1.0000
  H   H87       1.0  0.79051  0.33536  0.41984  1.0000
  N   N10       1.0  0.78719  0.57451  0.35035  1.0000
  C   C100      1.0  0.80363  0.55834  0.34655  1.0000
  C   C101      1.0  0.75509  0.55539  0.36452  1.0000
  C   C102      1.0  0.80214  0.60716  0.35559  1.0000
  C   C103      1.0  0.69510  0.50307  0.37962  1.0000
  C   C104      1.0  0.71474  0.51444  0.45533  1.0000
  C   C105      1.0  0.74418  0.54023  0.44797  1.0000
  C   C106      1.0  0.82482  0.51535  0.35227  1.0000
  C   C107      1.0  0.83012  0.53548  0.42529  1.0000
  C   C108      1.0  0.81936  0.55642  0.42284  1.0000
  C   C109      1.0  0.83013  0.67277  0.36221  1.0000
  C   C110      1.0  0.81323  0.65423  0.43616  1.0000
  C   C111      1.0  0.79984  0.62210  0.43331  1.0000
  H   H88       1.0  0.70856  0.50286  0.51540  1.0000
  H   H89       1.0  0.75867  0.54620  0.50193  1.0000
  H   H90       1.0  0.82171  0.56927  0.47880  1.0000
  H   H91       1.0  0.84064  0.53409  0.48270  1.0000
  H   H92       1.0  0.81016  0.66400  0.49280  1.0000
  H   H93       1.0  0.78758  0.60950  0.48774  1.0000
  C   C112      1.0  0.84058  0.70415  0.36331  1.0000
  C   C113      1.0  0.83452  0.49404  0.35647  1.0000
  C   C114      1.0  0.66872  0.47452  0.38465  1.0000
  H   H94       1.0  0.82557  0.71077  0.37850  1.0000
  H   H95       1.0  0.85619  0.50121  0.37257  1.0000
  H   H96       1.0  0.66977  0.45822  0.41970  1.0000
  C   C115      1.0  0.24940  0.12954  0.35083  1.0000
  C   C116      1.0  0.23275  0.11771  0.43278  1.0000
  C   C117      1.0  0.20000  0.10018  0.43113  1.0000
  C   C118      1.0  0.24927  0.12406  0.52128  1.0000
  H   H97       1.0  0.27377  0.13970  0.51717  1.0000
  H   H98       1.0  0.24592  0.10276  0.55038  1.0000
  H   H99       1.0  0.24053  0.13454  0.56808  1.0000
  C   C119      1.0  0.18277  0.08606  0.51677  1.0000
  H   H100      1.0  0.15816  0.07175  0.50820  1.0000
  H   H101      1.0  0.18644  0.10390  0.56497  1.0000
  H   H102      1.0  0.19068  0.07147  0.54635  1.0000
  N   N11       1.0  0.28031  0.14696  0.34978  1.0000
  C   C120      1.0  0.87556  0.12290  0.35086  1.0000
  C   C121      1.0  0.88737  0.11806  0.43282  1.0000
  C   C122      1.0  0.90491  0.10285  0.43116  1.0000
  C   C123      1.0  0.88099  0.12819  0.52133  1.0000
  H   H103      1.0  0.86534  0.13704  0.51723  1.0000
  H   H104      1.0  0.90228  0.14615  0.55049  1.0000
  H   H105      1.0  0.87052  0.10896  0.56808  1.0000
  C   C124      1.0  0.91902  0.09972  0.51680  1.0000
  H   H106      1.0  0.93335  0.08944  0.50822  1.0000
  H   H107      1.0  0.90117  0.08553  0.56495  1.0000
  H   H108      1.0  0.93359  0.12222  0.54645  1.0000
  N   N12       1.0  0.85815  0.13641  0.34980  1.0000
  C   C125      1.0  0.88223  0.75573  0.35088  1.0000
  C   C126      1.0  0.88705  0.77238  0.43284  1.0000
  C   C127      1.0  0.90227  0.80513  0.43118  1.0000
  C   C128      1.0  0.87690  0.75587  0.52135  1.0000
  H   H109      1.0  0.86805  0.73136  0.51724  1.0000
  H   H110      1.0  0.85894  0.75920  0.55046  1.0000
  H   H111      1.0  0.89611  0.76461  0.56813  1.0000
  C   C129      1.0  0.90537  0.82236  0.51681  1.0000
  H   H112      1.0  0.91566  0.84697  0.50824  1.0000
  H   H113      1.0  0.91955  0.81870  0.56500  1.0000
  H   H114      1.0  0.88287  0.81444  0.54642  1.0000
  N   N13       1.0  0.86872  0.72481  0.34984  1.0000
  C   C130      1.0  0.56398  0.17897  0.34606  1.0000
  C   C131      1.0  0.57651  0.17467  0.42734  1.0000
  C   C132      1.0  0.60679  0.17917  0.42718  1.0000
  C   C133      1.0  0.62270  0.17910  0.51258  1.0000
  H   H115      1.0  0.61130  0.17971  0.57414  1.0000
  H   H116      1.0  0.64554  0.19921  0.51494  1.0000
  H   H117      1.0  0.62476  0.15862  0.51510  1.0000
  C   C134      1.0  0.55765  0.16454  0.51169  1.0000
  H   H118      1.0  0.53351  0.15673  0.50086  1.0000
  H   H119      1.0  0.56642  0.18331  0.56013  1.0000
  H   H120      1.0  0.55848  0.14521  0.54153  1.0000
  N   N14       1.0  0.53702  0.17829  0.34605  1.0000
  C   C135      1.0  0.82612  0.38805  0.34605  1.0000
  C   C136      1.0  0.83043  0.40488  0.42732  1.0000
  C   C137      1.0  0.82593  0.43066  0.42717  1.0000
  C   C138      1.0  0.82602  0.44666  0.51258  1.0000
  H   H121      1.0  0.82541  0.43464  0.57413  1.0000
  H   H122      1.0  0.80591  0.44938  0.51496  1.0000
  H   H123      1.0  0.84649  0.46919  0.51509  1.0000
  C   C139      1.0  0.84057  0.39615  0.51166  1.0000
  H   H124      1.0  0.84838  0.37983  0.50082  1.0000
  H   H125      1.0  0.82180  0.38615  0.56011  1.0000
  H   H126      1.0  0.85990  0.41632  0.54150  1.0000
  N   N15       1.0  0.82679  0.36176  0.34604  1.0000
  C   C140      1.0  0.61704  0.44112  0.34607  1.0000
  C   C141      1.0  0.60023  0.42859  0.42735  1.0000
  C   C142      1.0  0.57444  0.39831  0.42720  1.0000
  C   C143      1.0  0.55845  0.38239  0.51260  1.0000
  H   H127      1.0  0.57046  0.39380  0.57416  1.0000
  H   H128      1.0  0.55574  0.35956  0.51498  1.0000
  H   H129      1.0  0.53592  0.38033  0.51511  1.0000
  C   C144      1.0  0.60896  0.44745  0.51172  1.0000
  H   H130      1.0  0.62528  0.47158  0.50090  1.0000
  H   H131      1.0  0.61896  0.43867  0.56014  1.0000
  H   H132      1.0  0.58880  0.44662  0.54156  1.0000
  N   N16       1.0  0.64333  0.46809  0.34606  1.0000
