data_image0
_chemical_formula_structural       C3H4NHC3H4NHC3H4NHCNCNCNC18H12C3O3CNCNCNC18H12C3O3C3NC2NHCHNHC3NC2NHCHNHC3NC2NHCHNH
_chemical_formula_sum              "C75 H48 N18 O6"
_cell_length_a       36.773
_cell_length_b       36.7725
_cell_length_c       15.0877
_cell_angle_alpha    90
_cell_angle_beta     90
_cell_angle_gamma    120

_space_group_name_H-M_alt    "P 1"
_space_group_IT_number       1

loop_
  _space_group_symop_operation_xyz
  'x, y, z'

loop_
  _atom_site_type_symbol
  _atom_site_label
  _atom_site_symmetry_multiplicity
  _atom_site_fract_x
  _atom_site_fract_y
  _atom_site_fract_z
  _atom_site_occupancy
  C   C1        1.0  0.46997  0.51567  0.31750  1.0000
  C   C2        1.0  0.48932  0.50730  0.24582  1.0000
  C   C3        1.0  0.51245  0.48692  0.25972  1.0000
  H   H1        1.0  0.52489  0.48001  0.20596  1.0000
  H   H2        1.0  0.48600  0.51536  0.18260  1.0000
  H   H3        1.0  0.47045  0.53630  0.01466  1.0000
  H   H4        1.0  0.42343  0.48700  0.00495  1.0000
  N   N1        1.0  0.44951  0.53729  0.30170  1.0000
  H   H5        1.0  0.46431  0.56249  0.26522  1.0000
  C   C4        1.0  0.47707  0.95284  0.31755  1.0000
  C   C5        1.0  0.48542  0.98055  0.24586  1.0000
  C   C6        1.0  0.50582  0.02407  0.25974  1.0000
  H   H6        1.0  0.51271  0.04341  0.20596  1.0000
  H   H7        1.0  0.47734  0.96916  0.18265  1.0000
  H   H8        1.0  0.45645  0.93274  0.01471  1.0000
  H   H9        1.0  0.50574  0.93500  0.00500  1.0000
  N   N2        1.0  0.45541  0.91076  0.30180  1.0000
  H   H10       1.0  0.43024  0.90037  0.26522  1.0000
  C   C7        1.0  0.03989  0.52278  0.31756  1.0000
  C   C8        1.0  0.01218  0.50342  0.24588  1.0000
  C   C9        1.0  0.96867  0.48031  0.25974  1.0000
  H   H11       1.0  0.94932  0.46786  0.20597  1.0000
  H   H12       1.0  0.02357  0.50674  0.18266  1.0000
  H   H13       1.0  0.05998  0.52225  0.01473  1.0000
  H   H14       1.0  0.05773  0.56929  0.00502  1.0000
  N   N3        1.0  0.08196  0.54319  0.30182  1.0000
  H   H15       1.0  0.09235  0.52840  0.26522  1.0000
  C   C10       1.0  0.28633  0.64835  0.31978  1.0000
  N   N4        1.0  0.30247  0.62222  0.31989  1.0000
  C   C11       1.0  0.34438  0.63651  0.31984  1.0000
  N   N5        1.0  0.37051  0.67878  0.31993  1.0000
  C   C12       1.0  0.35622  0.70640  0.31981  1.0000
  N   N6        1.0  0.31395  0.69026  0.31988  1.0000
  C   C13       1.0  0.36033  0.60843  0.32136  1.0000
  C   C14       1.0  0.33369  0.56458  0.31008  1.0000
  C   C15       1.0  0.34980  0.53703  0.31222  1.0000
  C   C16       1.0  0.39318  0.55252  0.32488  1.0000
  C   C17       1.0  0.41969  0.59617  0.33781  1.0000
  C   C18       1.0  0.40361  0.62362  0.33561  1.0000
  C   C19       1.0  0.24230  0.63240  0.32126  1.0000
  C   C20       1.0  0.21421  0.58910  0.33546  1.0000
  C   C21       1.0  0.17069  0.57303  0.33765  1.0000
  C   C22       1.0  0.15355  0.59954  0.32481  1.0000
  C   C23       1.0  0.18143  0.64292  0.31218  1.0000
  C   C24       1.0  0.22509  0.65903  0.31002  1.0000
  C   C25       1.0  0.38429  0.75043  0.32134  1.0000
  C   C26       1.0  0.36910  0.77852  0.33558  1.0000
  C   C27       1.0  0.39654  0.82205  0.33773  1.0000
  C   C28       1.0  0.44019  0.83919  0.32486  1.0000
  C   C29       1.0  0.45569  0.81131  0.31224  1.0000
  C   C30       1.0  0.42815  0.76765  0.31009  1.0000
  H   H16       1.0  0.15177  0.54171  0.35082  1.0000
  H   H17       1.0  0.22500  0.56863  0.34585  1.0000
  H   H18       1.0  0.17021  0.66314  0.30308  1.0000
  H   H19       1.0  0.24412  0.69058  0.29966  1.0000
  H   H20       1.0  0.33783  0.76773  0.34591  1.0000
  H   H21       1.0  0.38415  0.84097  0.35086  1.0000
  H   H22       1.0  0.44066  0.74862  0.29968  1.0000
  H   H23       1.0  0.48713  0.82253  0.30308  1.0000
  H   H24       1.0  0.42409  0.65489  0.34600  1.0000
  H   H25       1.0  0.45100  0.60856  0.35095  1.0000
  H   H26       1.0  0.32958  0.50559  0.30308  1.0000
  H   H27       1.0  0.30215  0.55207  0.29968  1.0000
  C   C31       1.0  0.10952  0.58300  0.32871  1.0000
  C   C32       1.0  0.46768  0.88322  0.32870  1.0000
  C   C33       1.0  0.40972  0.52503  0.32870  1.0000
  O   O1        1.0  0.38513  0.48591  0.36193  1.0000
  O   O2        1.0  0.50679  0.89774  0.36198  1.0000
  O   O3        1.0  0.09500  0.60759  0.36200  1.0000
  C   C34       1.0  0.70510  0.34663  0.33082  1.0000
  N   N7        1.0  0.68817  0.37207  0.33076  1.0000
  C   C35       1.0  0.64611  0.35702  0.33087  1.0000
  N   N8        1.0  0.62068  0.31465  0.33079  1.0000
  C   C36       1.0  0.63572  0.28764  0.33085  1.0000
  N   N9        1.0  0.67810  0.30458  0.33075  1.0000
  C   C37       1.0  0.62935  0.38444  0.32947  1.0000
  C   C38       1.0  0.65557  0.42856  0.33664  1.0000
  C   C39       1.0  0.63871  0.45547  0.33449  1.0000
  C   C40       1.0  0.59497  0.43905  0.32625  1.0000
  C   C41       1.0  0.56878  0.39511  0.31778  1.0000
  C   C42       1.0  0.58564  0.36832  0.31959  1.0000
  C   C43       1.0  0.74928  0.36340  0.32940  1.0000
  C   C44       1.0  0.77687  0.40711  0.31945  1.0000
  C   C45       1.0  0.82052  0.42397  0.31760  1.0000
  C   C46       1.0  0.83827  0.39778  0.32616  1.0000
  C   C47       1.0  0.81095  0.35404  0.33445  1.0000
  C   C48       1.0  0.76718  0.33718  0.33659  1.0000
  C   C49       1.0  0.60831  0.24346  0.32944  1.0000
  C   C50       1.0  0.62443  0.21587  0.31954  1.0000
  C   C51       1.0  0.59763  0.17222  0.31770  1.0000
  C   C52       1.0  0.55370  0.15447  0.32621  1.0000
  C   C53       1.0  0.53728  0.18179  0.33448  1.0000
  C   C54       1.0  0.56419  0.22556  0.33663  1.0000
  H   H28       1.0  0.83914  0.45564  0.30808  1.0000
  H   H29       1.0  0.76561  0.42739  0.31244  1.0000
  H   H30       1.0  0.82266  0.33407  0.34056  1.0000
  H   H31       1.0  0.74858  0.30537  0.34376  1.0000
  H   H32       1.0  0.65597  0.22713  0.31249  1.0000
  H   H33       1.0  0.61069  0.15361  0.30812  1.0000
  H   H34       1.0  0.55098  0.24416  0.34376  1.0000
  H   H35       1.0  0.50560  0.17008  0.34056  1.0000
  H   H36       1.0  0.56535  0.33677  0.31256  1.0000
  H   H37       1.0  0.53711  0.38205  0.30818  1.0000
  H   H38       1.0  0.65868  0.48715  0.34053  1.0000
  H   H39       1.0  0.68739  0.44177  0.34376  1.0000
  C   C55       1.0  0.88241  0.41512  0.32295  1.0000
  C   C56       1.0  0.52690  0.11033  0.32295  1.0000
  C   C57       1.0  0.57763  0.46585  0.32295  1.0000
  O   O4        1.0  0.60062  0.50407  0.28456  1.0000
  O   O5        1.0  0.48867  0.09509  0.28458  1.0000
  O   O6        1.0  0.89766  0.39214  0.28460  1.0000
  C   C58       1.0  0.51797  0.47548  0.34601  1.0000
  C   C59       1.0  0.49885  0.48394  0.41840  1.0000
  C   C60       1.0  0.47542  0.50454  0.40436  1.0000
  N   N10       1.0  0.45953  0.51391  0.47675  1.0000
  C   C61       1.0  0.46410  0.50410  0.56134  1.0000
  C   C62       1.0  0.48693  0.48313  0.57449  1.0000
  N   N11       1.0  0.50352  0.47417  0.50311  1.0000
  H   H40       1.0  0.49158  0.47503  0.63655  1.0000
  C   C63       1.0  0.44567  0.51532  0.63593  1.0000
  H   H41       1.0  0.42910  0.53119  0.61241  1.0000
  N   N12       1.0  0.53923  0.45430  0.35797  1.0000
  H   H42       1.0  0.52603  0.42972  0.39656  1.0000
  C   C64       1.0  0.51728  0.04104  0.34601  1.0000
  C   C65       1.0  0.50881  0.01347  0.41841  1.0000
  C   C66       1.0  0.48820  0.96943  0.40440  1.0000
  N   N13       1.0  0.47883  0.94419  0.47679  1.0000
  C   C67       1.0  0.48864  0.95857  0.56139  1.0000
  C   C68       1.0  0.50963  0.00238  0.57451  1.0000
  N   N14       1.0  0.51860  0.02792  0.50312  1.0000
  H   H43       1.0  0.51773  0.01513  0.63656  1.0000
  C   C69       1.0  0.47742  0.92893  0.63600  1.0000
  H   H44       1.0  0.46155  0.89649  0.61249  1.0000
  N   N15       1.0  0.53846  0.08348  0.35794  1.0000
  H   H45       1.0  0.56305  0.09486  0.39651  1.0000
  C   C70       1.0  0.95170  0.47480  0.34602  1.0000
  C   C71       1.0  0.97926  0.49390  0.41843  1.0000
  C   C72       1.0  0.02330  0.51732  0.40442  1.0000
  N   N16       1.0  0.04854  0.53319  0.47681  1.0000
  C   C73       1.0  0.03416  0.52862  0.56140  1.0000
  C   C74       1.0  0.99035  0.50581  0.57452  1.0000
  N   N17       1.0  0.96481  0.48923  0.50313  1.0000
  H   H46       1.0  0.97760  0.50116  0.63657  1.0000
  C   C75       1.0  0.06380  0.54703  0.63602  1.0000
  H   H47       1.0  0.09623  0.56359  0.61251  1.0000
  N   N18       1.0  0.90925  0.45354  0.35794  1.0000
  H   H48       1.0  0.89786  0.46674  0.39650  1.0000
