data_image0
_chemical_formula_structural       C6H6N2C8H5CN2HNC8H5CN2HNC8H5CN2HNC3HOHCHC3HOHCHC3HOHCHC3H2CHC3H2CHC3H2CHC12H5CNC2NHN2C10H6CNCN2C10H6CNCN2C10H6CNCN2C3H2CHC3H2CHC3H2CHC3HOHCHC3HOHCHC3HOHCH
_chemical_formula_sum              "C132 H84 N24 O6"
_cell_length_a       57.0293
_cell_length_b       57.0391
_cell_length_c       14.8623
_cell_angle_alpha    90
_cell_angle_beta     90
_cell_angle_gamma    119.978

_space_group_name_H-M_alt    "P 1"
_space_group_IT_number       1

loop_
  _space_group_symop_operation_xyz
  'x, y, z'

loop_
  _atom_site_type_symbol
  _atom_site_label
  _atom_site_symmetry_multiplicity
  _atom_site_fract_x
  _atom_site_fract_y
  _atom_site_fract_z
  _atom_site_occupancy
  C   C1        1.0  0.97002  0.02805  0.33950  1.0000
  C   C2        1.0  0.93069  0.89978  0.35601  1.0000
  C   C3        1.0  0.94442  0.92829  0.35798  1.0000
  C   C4        1.0  0.94201  0.01436  0.31846  1.0000
  C   C5        1.0  0.92729  0.02817  0.31502  1.0000
  C   C6        1.0  0.93985  0.05603  0.33497  1.0000
  H   H1        1.0  0.91031  0.88932  0.36825  1.0000
  H   H2        1.0  0.93349  0.93754  0.37325  1.0000
  H   H3        1.0  0.93203  0.99417  0.30326  1.0000
  H   H4        1.0  0.90722  0.01767  0.29808  1.0000
  H   H5        1.0  0.11132  0.02294  0.36831  1.0000
  H   H6        1.0  0.06308  0.99787  0.37327  1.0000
  N   N1        1.0  0.97263  0.98666  0.34046  1.0000
  N   N2        1.0  0.92541  0.06850  0.32714  1.0000
  C   C7        1.0  0.46305  0.27659  0.36090  1.0000
  C   C8        1.0  0.36115  0.20493  0.36010  1.0000
  C   C9        1.0  0.33263  0.19060  0.36263  1.0000
  C   C10       1.0  0.50863  0.19810  0.33005  1.0000
  C   C11       1.0  0.49207  0.20978  0.33239  1.0000
  C   C12       1.0  0.48827  0.28779  0.40603  1.0000
  C   C13       1.0  0.50622  0.31583  0.40764  1.0000
  C   C14       1.0  0.49978  0.33366  0.36305  1.0000
  H   H7        1.0  0.32266  0.20063  0.38082  1.0000
  H   H8        1.0  0.50158  0.23045  0.33457  1.0000
  H   H9        1.0  0.52920  0.21055  0.32998  1.0000
  H   H10       1.0  0.49418  0.27558  0.43716  1.0000
  H   H11       1.0  0.52455  0.32301  0.43901  1.0000
  C   C15       1.0  0.44687  0.24803  0.35149  1.0000
  N   N3        1.0  0.45971  0.23358  0.34575  1.0000
  N   N4        1.0  0.41938  0.23396  0.34680  1.0000
  H   H12       1.0  0.37089  0.22497  0.37729  1.0000
  N   N5        1.0  0.51904  0.35949  0.36324  1.0000
  C   C16       1.0  0.72415  0.18862  0.36105  1.0000
  C   C17       1.0  0.79581  0.15838  0.36019  1.0000
  C   C18       1.0  0.81014  0.14417  0.36271  1.0000
  C   C19       1.0  0.80260  0.31264  0.32999  1.0000
  C   C20       1.0  0.79094  0.28442  0.33236  1.0000
  C   C21       1.0  0.71294  0.20265  0.40619  1.0000
  C   C22       1.0  0.68490  0.19258  0.40775  1.0000
  C   C23       1.0  0.66708  0.16834  0.36303  1.0000
  H   H13       1.0  0.80010  0.12419  0.38092  1.0000
  H   H14       1.0  0.77027  0.27326  0.33453  1.0000
  H   H15       1.0  0.79015  0.32076  0.32987  1.0000
  H   H16       1.0  0.72516  0.22076  0.43737  1.0000
  H   H17       1.0  0.67771  0.20372  0.43911  1.0000
  C   C24       1.0  0.75271  0.20101  0.35160  1.0000
  N   N6        1.0  0.76716  0.22829  0.34585  1.0000
  N   N7        1.0  0.76679  0.18759  0.34690  1.0000
  H   H18       1.0  0.77577  0.14809  0.37740  1.0000
  N   N8        1.0  0.64124  0.16180  0.36314  1.0000
  C   C25       1.0  0.81198  0.53755  0.36095  1.0000
  C   C26       1.0  0.84222  0.63944  0.36010  1.0000
  C   C27       1.0  0.85643  0.66796  0.36260  1.0000
  C   C28       1.0  0.68794  0.49204  0.33031  1.0000
  C   C29       1.0  0.71617  0.50860  0.33266  1.0000
  C   C30       1.0  0.79795  0.51233  0.40604  1.0000
  C   C31       1.0  0.80804  0.49437  0.40763  1.0000
  C   C32       1.0  0.83230  0.50080  0.36297  1.0000
  H   H19       1.0  0.87642  0.67790  0.38077  1.0000
  H   H20       1.0  0.72733  0.49908  0.33497  1.0000
  H   H21       1.0  0.67983  0.47147  0.33032  1.0000
  H   H22       1.0  0.77983  0.50643  0.43723  1.0000
  H   H23       1.0  0.79690  0.47605  0.43896  1.0000
  C   C33       1.0  0.79959  0.55375  0.35157  1.0000
  N   N9        1.0  0.77231  0.54093  0.34587  1.0000
  N   N10       1.0  0.81301  0.58123  0.34686  1.0000
  H   H24       1.0  0.85251  0.62968  0.37732  1.0000
  N   N11       1.0  0.83886  0.48152  0.36307  1.0000
  C   C34       1.0  0.24490  0.11938  0.31912  1.0000
  C   C35       1.0  0.22562  0.11080  0.24834  1.0000
  C   C36       1.0  0.19760  0.09684  0.26730  1.0000
  H   H25       1.0  0.18426  0.09006  0.21458  1.0000
  O   O1        1.0  0.23333  0.11442  0.16036  1.0000
  H   H26       1.0  0.23787  0.13299  0.14495  1.0000
  C   C37       1.0  0.27239  0.13057  0.30072  1.0000
  H   H27       1.0  0.27780  0.12324  0.24896  1.0000
  C   C38       1.0  0.88131  0.12757  0.31913  1.0000
  C   C39       1.0  0.88987  0.11685  0.24834  1.0000
  C   C40       1.0  0.90378  0.10274  0.26727  1.0000
  H   H28       1.0  0.91056  0.09617  0.21455  1.0000
  O   O2        1.0  0.88623  0.12093  0.16036  1.0000
  H   H29       1.0  0.86765  0.10692  0.14500  1.0000
  C   C41       1.0  0.87016  0.14391  0.30076  1.0000
  H   H30       1.0  0.87750  0.15663  0.24900  1.0000
  C   C42       1.0  0.87304  0.75572  0.31915  1.0000
  C   C43       1.0  0.88375  0.77499  0.24837  1.0000
  C   C44       1.0  0.89786  0.80301  0.26732  1.0000
  H   H31       1.0  0.90441  0.81634  0.21460  1.0000
  O   O3        1.0  0.87966  0.76728  0.16038  1.0000
  H   H32       1.0  0.89367  0.76272  0.14498  1.0000
  C   C45       1.0  0.85669  0.72824  0.30074  1.0000
  H   H33       1.0  0.84396  0.72287  0.24899  1.0000
  C   C46       1.0  0.59600  0.14603  0.33619  1.0000
  C   C47       1.0  0.58047  0.14655  0.26290  1.0000
  C   C48       1.0  0.55868  0.15119  0.27672  1.0000
  H   H34       1.0  0.54912  0.15322  0.22147  1.0000
  H   H35       1.0  0.58593  0.14526  0.19824  1.0000
  C   C49       1.0  0.61955  0.14507  0.32123  1.0000
  H   H36       1.0  0.62022  0.13351  0.27241  1.0000
  C   C50       1.0  0.85464  0.45205  0.33619  1.0000
  C   C51       1.0  0.85412  0.43601  0.26287  1.0000
  C   C52       1.0  0.84951  0.40959  0.27665  1.0000
  H   H37       1.0  0.84753  0.39803  0.22138  1.0000
  H   H38       1.0  0.85551  0.44281  0.19823  1.0000
  C   C53       1.0  0.85562  0.47656  0.32125  1.0000
  H   H39       1.0  0.86721  0.48880  0.27252  1.0000
  C   C54       1.0  0.54852  0.40470  0.33618  1.0000
  C   C55       1.0  0.56459  0.42019  0.26288  1.0000
  C   C56       1.0  0.59101  0.44200  0.27670  1.0000
  H   H40       1.0  0.60259  0.45155  0.22145  1.0000
  H   H41       1.0  0.55782  0.41476  0.19822  1.0000
  C   C57       1.0  0.52400  0.38118  0.32126  1.0000
  H   H42       1.0  0.51184  0.38047  0.27216  1.0000
  C   C58       1.0  0.97253  0.94387  0.33952  1.0000
  C   C59       1.0  0.05670  0.03054  0.33949  1.0000
  C   C60       1.0  0.98623  0.92955  0.31851  1.0000
  C   C61       1.0  0.97242  0.90104  0.31509  1.0000
  C   C62       1.0  0.94457  0.88574  0.33510  1.0000
  C   C63       1.0  0.96775  0.06990  0.35597  1.0000
  C   C64       1.0  0.98254  0.05616  0.35794  1.0000
  C   C65       1.0  0.07100  0.05854  0.31846  1.0000
  C   C66       1.0  0.09952  0.07327  0.31504  1.0000
  C   C67       1.0  0.11484  0.06074  0.33511  1.0000
  C   C68       1.0  0.10083  0.03283  0.35601  1.0000
  C   C69       1.0  0.07231  0.01803  0.35798  1.0000
  H   H43       1.0  0.98293  0.89147  0.29813  1.0000
  H   H44       1.0  0.00271  0.06708  0.37322  1.0000
  H   H45       1.0  0.97765  0.09027  0.36816  1.0000
  H   H46       1.0  0.06077  0.06851  0.30313  1.0000
  H   H47       1.0  0.10907  0.09334  0.29805  1.0000
  C   C70       1.0  0.02774  0.01543  0.34054  1.0000
  N   N12       1.0  0.01270  0.02793  0.34045  1.0000
  C   C71       1.0  0.98513  0.01419  0.34056  1.0000
  C   C72       1.0  0.98639  0.97283  0.34056  1.0000
  N   N13       1.0  0.01392  0.98785  0.34046  1.0000
  H   H48       1.0  0.00642  0.93976  0.30324  1.0000
  N   N14       1.0  0.14174  0.07519  0.32724  1.0000
  N   N15       1.0  0.93210  0.85884  0.32722  1.0000
  C   C73       1.0  0.46338  0.19373  0.33165  1.0000
  C   C74       1.0  0.37608  0.19198  0.33726  1.0000
  C   C75       1.0  0.31785  0.16289  0.34038  1.0000
  C   C76       1.0  0.33247  0.14973  0.31751  1.0000
  C   C77       1.0  0.36102  0.16401  0.31619  1.0000
  C   C78       1.0  0.45210  0.16527  0.32673  1.0000
  C   C79       1.0  0.46878  0.15347  0.32423  1.0000
  C   C80       1.0  0.49724  0.16974  0.32806  1.0000
  C   C81       1.0  0.47431  0.32285  0.32010  1.0000
  C   C82       1.0  0.45605  0.29466  0.31985  1.0000
  H   H49       1.0  0.32243  0.12947  0.30352  1.0000
  H   H50       1.0  0.37068  0.15356  0.29980  1.0000
  H   H51       1.0  0.43156  0.15280  0.32536  1.0000
  H   H52       1.0  0.46002  0.13286  0.32106  1.0000
  H   H53       1.0  0.46915  0.33534  0.28709  1.0000
  H   H54       1.0  0.43824  0.28735  0.28522  1.0000
  C   C83       1.0  0.44712  0.20635  0.33610  1.0000
  N   N16       1.0  0.41954  0.19314  0.33294  1.0000
  C   C84       1.0  0.40510  0.20640  0.33807  1.0000
  N   N17       1.0  0.51329  0.15893  0.32471  1.0000
  N   N18       1.0  0.29089  0.15012  0.34723  1.0000
  C   C85       1.0  0.80700  0.27179  0.33167  1.0000
  C   C86       1.0  0.80877  0.18625  0.33733  1.0000
  C   C87       1.0  0.83785  0.15708  0.34043  1.0000
  C   C88       1.0  0.85102  0.18485  0.31753  1.0000
  C   C89       1.0  0.83674  0.19913  0.31621  1.0000
  C   C90       1.0  0.83546  0.28896  0.32675  1.0000
  C   C91       1.0  0.84726  0.31743  0.32419  1.0000
  C   C92       1.0  0.83097  0.32961  0.32800  1.0000
  C   C93       1.0  0.67789  0.15368  0.32008  1.0000
  C   C94       1.0  0.70609  0.16359  0.31996  1.0000
  H   H55       1.0  0.87128  0.19506  0.30350  1.0000
  H   H56       1.0  0.84720  0.21923  0.29981  1.0000
  H   H57       1.0  0.84794  0.28089  0.32543  1.0000
  H   H58       1.0  0.86787  0.32928  0.32106  1.0000
  H   H59       1.0  0.66540  0.13606  0.28697  1.0000
  H   H60       1.0  0.71340  0.15312  0.28518  1.0000
  C   C95       1.0  0.79439  0.24291  0.33617  1.0000
  N   N19       1.0  0.80761  0.22854  0.33299  1.0000
  C   C96       1.0  0.79436  0.20086  0.33814  1.0000
  N   N20       1.0  0.84176  0.35646  0.32460  1.0000
  N   N21       1.0  0.85061  0.14288  0.34727  1.0000
  C   C97       1.0  0.72880  0.53728  0.33178  1.0000
  C   C98       1.0  0.81435  0.62454  0.33732  1.0000
  C   C99       1.0  0.84352  0.68277  0.34030  1.0000
  C   C100      1.0  0.81574  0.66818  0.31750  1.0000
  C   C101      1.0  0.80146  0.63964  0.31623  1.0000
  C   C102      1.0  0.71161  0.54856  0.32670  1.0000
  C   C103      1.0  0.68313  0.53189  0.32417  1.0000
  C   C104      1.0  0.67096  0.50343  0.32815  1.0000
  C   C105      1.0  0.84696  0.52627  0.32010  1.0000
  C   C106      1.0  0.83704  0.54455  0.31995  1.0000
  H   H61       1.0  0.80553  0.67824  0.30352  1.0000
  H   H62       1.0  0.78135  0.63000  0.29988  1.0000
  H   H63       1.0  0.71967  0.56910  0.32525  1.0000
  H   H64       1.0  0.67128  0.54065  0.32090  1.0000
  H   H65       1.0  0.86460  0.53141  0.28699  1.0000
  H   H66       1.0  0.84751  0.56234  0.28522  1.0000
  C   C107      1.0  0.75768  0.55354  0.33625  1.0000
  N   N22       1.0  0.77205  0.58112  0.33305  1.0000
  C   C108      1.0  0.79973  0.59553  0.33815  1.0000
  N   N23       1.0  0.64411  0.48739  0.32474  1.0000
  N   N24       1.0  0.85773  0.70972  0.34719  1.0000
  C   C109      1.0  0.18788  0.09115  0.35682  1.0000
  C   C110      1.0  0.20719  0.10019  0.42711  1.0000
  C   C111      1.0  0.23517  0.11412  0.40868  1.0000
  H   H67       1.0  0.24838  0.11943  0.46155  1.0000
  H   H68       1.0  0.20104  0.09609  0.49280  1.0000
  C   C112      1.0  0.16039  0.07523  0.37629  1.0000
  H   H69       1.0  0.15503  0.06341  0.43054  1.0000
  C   C113      1.0  0.90950  0.09872  0.35679  1.0000
  C   C114      1.0  0.90047  0.10900  0.42710  1.0000
  C   C115      1.0  0.88656  0.12308  0.40870  1.0000
  H   H70       1.0  0.88128  0.13101  0.46156  1.0000
  H   H71       1.0  0.90458  0.10696  0.49279  1.0000
  C   C116      1.0  0.92538  0.08711  0.37625  1.0000
  H   H72       1.0  0.93721  0.09354  0.43049  1.0000
  C   C117      1.0  0.90188  0.81273  0.35683  1.0000
  C   C118      1.0  0.89160  0.79342  0.42713  1.0000
  C   C119      1.0  0.87752  0.76545  0.40872  1.0000
  H   H73       1.0  0.86960  0.75225  0.46157  1.0000
  H   H74       1.0  0.89364  0.79957  0.49283  1.0000
  C   C120      1.0  0.91349  0.84022  0.37631  1.0000
  H   H75       1.0  0.90705  0.84560  0.43058  1.0000
  C   C121      1.0  0.55146  0.15508  0.36437  1.0000
  C   C122      1.0  0.56623  0.15324  0.43838  1.0000
  C   C123      1.0  0.58819  0.14887  0.42403  1.0000
  H   H76       1.0  0.59917  0.14883  0.47849  1.0000
  O   O4        1.0  0.56128  0.15767  0.52459  1.0000
  H   H77       1.0  0.54546  0.14073  0.54483  1.0000
  C   C124      1.0  0.53339  0.16447  0.37735  1.0000
  H   H78       1.0  0.53751  0.17777  0.42686  1.0000
  C   C125      1.0  0.84559  0.39847  0.36427  1.0000
  C   C126      1.0  0.84739  0.41505  0.43830  1.0000
  C   C127      1.0  0.85175  0.44136  0.42400  1.0000
  H   H79       1.0  0.85181  0.45239  0.47848  1.0000
  O   O5        1.0  0.84293  0.40565  0.52449  1.0000
  H   H80       1.0  0.85987  0.40676  0.54478  1.0000
  C   C128      1.0  0.83619  0.37101  0.37716  1.0000
  H   H81       1.0  0.82291  0.36184  0.42674  1.0000
  C   C129      1.0  0.60209  0.44922  0.36436  1.0000
  C   C130      1.0  0.58548  0.43449  0.43837  1.0000
  C   C131      1.0  0.55917  0.41253  0.42402  1.0000
  H   H82       1.0  0.54814  0.40158  0.47849  1.0000
  O   O6        1.0  0.59486  0.43942  0.52459  1.0000
  H   H83       1.0  0.59376  0.45526  0.54479  1.0000
  C   C132      1.0  0.62954  0.46729  0.37736  1.0000
  H   H84       1.0  0.63872  0.46317  0.42692  1.0000
