data_image0
_chemical_formula_structural       C2H8C2H8C2HC3HC2H4NHC2HC3HC2H4NHC2HC3HC2H4NHC28H16CHCHCHC28H16CHCHCHC7H3NO2NHC7H3NO2NHC7H3NO2NH
_chemical_formula_sum              "C108 H87 N9 O6"
_cell_length_a       52.3507
_cell_length_b       52.3459
_cell_length_c       14.9916
_cell_angle_alpha    90
_cell_angle_beta     90
_cell_angle_gamma    120.001

_space_group_name_H-M_alt    "P 1"
_space_group_IT_number       1

loop_
  _space_group_symop_operation_xyz
  'x, y, z'

loop_
  _atom_site_type_symbol
  _atom_site_label
  _atom_site_symmetry_multiplicity
  _atom_site_fract_x
  _atom_site_fract_y
  _atom_site_fract_z
  _atom_site_occupancy
  C   C1        1.0  0.37727  0.79558  0.36975  1.0000
  C   C2        1.0  0.39386  0.82651  0.36254  1.0000
  H   H1        1.0  0.38442  0.83844  0.38367  1.0000
  H   H2        1.0  0.35632  0.78617  0.39517  1.0000
  H   H3        1.0  0.45453  0.61623  0.38373  1.0000
  H   H4        1.0  0.16225  0.54611  0.38368  1.0000
  H   H5        1.0  0.21452  0.57029  0.39515  1.0000
  H   H6        1.0  0.12252  0.56866  0.24526  1.0000
  H   H7        1.0  0.43199  0.55397  0.24524  1.0000
  H   H8        1.0  0.44670  0.87816  0.24526  1.0000
  C   C3        1.0  0.62099  0.20323  0.31231  1.0000
  C   C4        1.0  0.60269  0.17256  0.32267  1.0000
  H   H9        1.0  0.61200  0.15952  0.31705  1.0000
  H   H10       1.0  0.64300  0.21147  0.30031  1.0000
  H   H11       1.0  0.54809  0.38871  0.31700  1.0000
  H   H12       1.0  0.84121  0.45266  0.31708  1.0000
  H   H13       1.0  0.78926  0.43171  0.30035  1.0000
  H   H14       1.0  0.88036  0.41500  0.30191  1.0000
  H   H15       1.0  0.58572  0.46552  0.30189  1.0000
  H   H16       1.0  0.53520  0.12036  0.30195  1.0000
  C   C5        1.0  0.50889  0.47903  0.28545  1.0000
  C   C6        1.0  0.51963  0.45907  0.28397  1.0000
  H   H17       1.0  0.51785  0.44743  0.22718  1.0000
  C   C7        1.0  0.47482  0.55316  0.35101  1.0000
  C   C8        1.0  0.48428  0.54511  0.27330  1.0000
  C   C9        1.0  0.49623  0.52617  0.27809  1.0000
  H   H18       1.0  0.48258  0.55333  0.21306  1.0000
  C   C10       1.0  0.50481  0.51681  0.19495  1.0000
  C   C11       1.0  0.49633  0.48398  0.20231  1.0000
  H   H19       1.0  0.52866  0.53050  0.18600  1.0000
  H   H20       1.0  0.49406  0.51958  0.13612  1.0000
  H   H21       1.0  0.50427  0.47806  0.14267  1.0000
  H   H22       1.0  0.47232  0.47009  0.20438  1.0000
  N   N1        1.0  0.46333  0.57253  0.34939  1.0000
  H   H23       1.0  0.47726  0.59093  0.31290  1.0000
  C   C12       1.0  0.52165  0.03001  0.28547  1.0000
  C   C13       1.0  0.54163  0.06070  0.28401  1.0000
  H   H24       1.0  0.55327  0.07057  0.22722  1.0000
  C   C14       1.0  0.44749  0.92180  0.35097  1.0000
  C   C15       1.0  0.45555  0.93932  0.27326  1.0000
  C   C16       1.0  0.47450  0.97021  0.27805  1.0000
  H   H25       1.0  0.44734  0.92940  0.21301  1.0000
  C   C17       1.0  0.48387  0.98815  0.19493  1.0000
  C   C18       1.0  0.51669  0.01249  0.20231  1.0000
  H   H26       1.0  0.47018  0.99832  0.18596  1.0000
  H   H27       1.0  0.48110  0.97464  0.13610  1.0000
  H   H28       1.0  0.52262  0.02636  0.14267  1.0000
  H   H29       1.0  0.53058  0.00237  0.20437  1.0000
  N   N2        1.0  0.42812  0.89094  0.34934  1.0000
  H   H30       1.0  0.40973  0.88647  0.31281  1.0000
  C   C19       1.0  0.97071  0.49179  0.28548  1.0000
  C   C20       1.0  0.94002  0.48109  0.28402  1.0000
  H   H31       1.0  0.93016  0.48286  0.22722  1.0000
  C   C21       1.0  0.07889  0.52579  0.35098  1.0000
  C   C22       1.0  0.06138  0.51635  0.27327  1.0000
  C   C23       1.0  0.03049  0.50439  0.27807  1.0000
  H   H32       1.0  0.07130  0.51806  0.21302  1.0000
  C   C24       1.0  0.01256  0.49584  0.19494  1.0000
  C   C25       1.0  0.98822  0.50434  0.20232  1.0000
  H   H33       1.0  0.00237  0.47198  0.18596  1.0000
  H   H34       1.0  0.02607  0.50659  0.13611  1.0000
  H   H35       1.0  0.97436  0.49641  0.14269  1.0000
  H   H36       1.0  0.99836  0.52836  0.20439  1.0000
  N   N3        1.0  0.10976  0.53730  0.34934  1.0000
  H   H37       1.0  0.11423  0.52338  0.31281  1.0000
  C   C26       1.0  0.42274  0.84068  0.32659  1.0000
  C   C27       1.0  0.43460  0.82282  0.29983  1.0000
  C   C28       1.0  0.41816  0.79192  0.30775  1.0000
  C   C29       1.0  0.38901  0.77778  0.34154  1.0000
  C   C30       1.0  0.37202  0.74725  0.34911  1.0000
  C   C31       1.0  0.36986  0.72834  0.28486  1.0000
  C   C32       1.0  0.35197  0.69807  0.29184  1.0000
  C   C33       1.0  0.32092  0.68502  0.29124  1.0000
  C   C34       1.0  0.30260  0.65403  0.29175  1.0000
  C   C35       1.0  0.31566  0.63604  0.29118  1.0000
  C   C36       1.0  0.34664  0.64870  0.29174  1.0000
  C   C37       1.0  0.36463  0.67975  0.29126  1.0000
  C   C38       1.0  0.35902  0.63081  0.28476  1.0000
  C   C39       1.0  0.37577  0.62865  0.34901  1.0000
  C   C40       1.0  0.38930  0.61165  0.34146  1.0000
  C   C41       1.0  0.41884  0.62340  0.36972  1.0000
  C   C42       1.0  0.37430  0.58251  0.30763  1.0000
  C   C43       1.0  0.38875  0.56607  0.29972  1.0000
  C   C44       1.0  0.41846  0.57792  0.32655  1.0000
  C   C45       1.0  0.43316  0.60679  0.36256  1.0000
  C   C46       1.0  0.27234  0.64165  0.28477  1.0000
  C   C47       1.0  0.25342  0.62489  0.34901  1.0000
  C   C48       1.0  0.22290  0.61135  0.34145  1.0000
  C   C49       1.0  0.20876  0.62635  0.30766  1.0000
  C   C50       1.0  0.20510  0.58180  0.36969  1.0000
  C   C51       1.0  0.17418  0.56748  0.36253  1.0000
  C   C52       1.0  0.16000  0.58218  0.32655  1.0000
  C   C53       1.0  0.17786  0.61190  0.29976  1.0000
  H   H38       1.0  0.45553  0.83228  0.27440  1.0000
  H   H39       1.0  0.42770  0.77986  0.28837  1.0000
  H   H40       1.0  0.38714  0.68908  0.28862  1.0000
  H   H41       1.0  0.31159  0.69819  0.28863  1.0000
  H   H42       1.0  0.30248  0.61352  0.28853  1.0000
  H   H43       1.0  0.22082  0.64796  0.28827  1.0000
  H   H44       1.0  0.43036  0.64433  0.39519  1.0000
  H   H45       1.0  0.37729  0.54514  0.27428  1.0000
  H   H46       1.0  0.35270  0.57298  0.28822  1.0000
  H   H47       1.0  0.16839  0.62336  0.27433  1.0000
  H   H48       1.0  0.37980  0.64078  0.40399  1.0000
  H   H49       1.0  0.35515  0.61926  0.22873  1.0000
  H   H50       1.0  0.35988  0.73916  0.40406  1.0000
  H   H51       1.0  0.38143  0.73603  0.22884  1.0000
  H   H52       1.0  0.26152  0.62086  0.40398  1.0000
  H   H53       1.0  0.26465  0.64552  0.22874  1.0000
  C   C54       1.0  0.12738  0.56809  0.31603  1.0000
  H   H54       1.0  0.12046  0.58175  0.35243  1.0000
  C   C55       1.0  0.43255  0.55938  0.31602  1.0000
  H   H55       1.0  0.41888  0.53879  0.35238  1.0000
  C   C56       1.0  0.44128  0.87331  0.31603  1.0000
  H   H56       1.0  0.46186  0.88023  0.35241  1.0000
  C   C57       1.0  0.57221  0.16010  0.34086  1.0000
  C   C58       1.0  0.56057  0.17931  0.34602  1.0000
  C   C59       1.0  0.57880  0.20996  0.33563  1.0000
  C   C60       1.0  0.60939  0.22240  0.32003  1.0000
  C   C61       1.0  0.62798  0.25265  0.31124  1.0000
  C   C62       1.0  0.62862  0.27249  0.36959  1.0000
  C   C63       1.0  0.64773  0.30262  0.36270  1.0000
  C   C64       1.0  0.67864  0.31448  0.36324  1.0000
  C   C65       1.0  0.69812  0.34529  0.36264  1.0000
  C   C66       1.0  0.68626  0.36435  0.36324  1.0000
  C   C67       1.0  0.65545  0.35300  0.36269  1.0000
  C   C68       1.0  0.63639  0.32209  0.36331  1.0000
  C   C69       1.0  0.64444  0.37213  0.36953  1.0000
  C   C70       1.0  0.62527  0.37277  0.31113  1.0000
  C   C71       1.0  0.61359  0.39135  0.31994  1.0000
  C   C72       1.0  0.58283  0.37974  0.31222  1.0000
  C   C73       1.0  0.63173  0.42194  0.33554  1.0000
  C   C74       1.0  0.61931  0.44017  0.34593  1.0000
  C   C75       1.0  0.58846  0.42851  0.34079  1.0000
  C   C76       1.0  0.57045  0.39803  0.32260  1.0000
  C   C77       1.0  0.72825  0.35629  0.36953  1.0000
  C   C78       1.0  0.74808  0.37550  0.31123  1.0000
  C   C79       1.0  0.77833  0.38716  0.32001  1.0000
  C   C80       1.0  0.79077  0.36901  0.33558  1.0000
  C   C81       1.0  0.79750  0.41793  0.31230  1.0000
  C   C82       1.0  0.82817  0.43029  0.32266  1.0000
  C   C83       1.0  0.84062  0.41228  0.34084  1.0000
  C   C84       1.0  0.82142  0.38142  0.34598  1.0000
  H   H57       1.0  0.53858  0.17107  0.35833  1.0000
  H   H58       1.0  0.56953  0.22311  0.34006  1.0000
  H   H59       1.0  0.61401  0.31368  0.36607  1.0000
  H   H60       1.0  0.68705  0.30050  0.36606  1.0000
  H   H61       1.0  0.70024  0.38673  0.36602  1.0000
  H   H62       1.0  0.77762  0.34658  0.33998  1.0000
  H   H63       1.0  0.56905  0.35772  0.30025  1.0000
  H   H64       1.0  0.63305  0.46215  0.35823  1.0000
  H   H65       1.0  0.65416  0.43123  0.33994  1.0000
  H   H66       1.0  0.82965  0.36767  0.35825  1.0000
  H   H67       1.0  0.61800  0.35847  0.26070  1.0000
  H   H68       1.0  0.65148  0.38612  0.42073  1.0000
  H   H69       1.0  0.64226  0.25969  0.26076  1.0000
  H   H70       1.0  0.61463  0.26554  0.42079  1.0000
  H   H71       1.0  0.74105  0.38277  0.26076  1.0000
  H   H72       1.0  0.73519  0.34924  0.42071  1.0000
  C   C85       1.0  0.87281  0.42408  0.35479  1.0000
  H   H73       1.0  0.87557  0.41560  0.41865  1.0000
  C   C86       1.0  0.57664  0.44889  0.35475  1.0000
  H   H74       1.0  0.58512  0.46013  0.41863  1.0000
  C   C87       1.0  0.55183  0.12791  0.35481  1.0000
  H   H75       1.0  0.54059  0.12515  0.41868  1.0000
  C   C88       1.0  0.53338  0.45527  0.35912  1.0000
  C   C89       1.0  0.53663  0.47202  0.43614  1.0000
  C   C90       1.0  0.52610  0.49220  0.43960  1.0000
  C   C91       1.0  0.51084  0.49508  0.36474  1.0000
  C   C92       1.0  0.49922  0.51502  0.36197  1.0000
  C   C93       1.0  0.48777  0.52192  0.43822  1.0000
  C   C94       1.0  0.47646  0.54122  0.43331  1.0000
  H   H76       1.0  0.48646  0.51224  0.49835  1.0000
  H   H77       1.0  0.46864  0.54590  0.48989  1.0000
  H   H78       1.0  0.54736  0.46990  0.49018  1.0000
  N   N4        1.0  0.53293  0.51072  0.51529  1.0000
  O   O1        1.0  0.52256  0.49617  0.58594  1.0000
  O   O2        1.0  0.56027  0.52736  0.52466  1.0000
  N   N5        1.0  0.54395  0.43514  0.35419  1.0000
  H   H79       1.0  0.53494  0.42042  0.40603  1.0000
  C   C95       1.0  0.54542  0.07825  0.35916  1.0000
  C   C96       1.0  0.52868  0.06475  0.43618  1.0000
  C   C97       1.0  0.50848  0.03404  0.43960  1.0000
  C   C98       1.0  0.50559  0.01591  0.36474  1.0000
  C   C99       1.0  0.48564  0.98434  0.36194  1.0000
  C   C100      1.0  0.47873  0.96599  0.43819  1.0000
  C   C101      1.0  0.45942  0.93539  0.43329  1.0000
  H   H80       1.0  0.48841  0.97436  0.49832  1.0000
  H   H81       1.0  0.45475  0.92288  0.48985  1.0000
  H   H82       1.0  0.53080  0.07761  0.49021  1.0000
  N   N6        1.0  0.48996  0.02236  0.51529  1.0000
  O   O3        1.0  0.50449  0.02652  0.58595  1.0000
  O   O4        1.0  0.47333  0.03308  0.52465  1.0000
  N   N7        1.0  0.56556  0.10895  0.35425  1.0000
  H   H83       1.0  0.58027  0.11466  0.40609  1.0000
  C   C102      1.0  0.92247  0.46733  0.35915  1.0000
  C   C103      1.0  0.93596  0.46409  0.43619  1.0000
  C   C104      1.0  0.96666  0.47458  0.43962  1.0000
  C   C105      1.0  0.98480  0.48981  0.36473  1.0000
  C   C106      1.0  0.01636  0.50141  0.36195  1.0000
  C   C107      1.0  0.03471  0.51282  0.43822  1.0000
  C   C108      1.0  0.06531  0.52412  0.43331  1.0000
  H   H84       1.0  0.02634  0.51417  0.49832  1.0000
  H   H85       1.0  0.07782  0.53198  0.48985  1.0000
  H   H86       1.0  0.92310  0.45334  0.49021  1.0000
  N   N8        1.0  0.97833  0.46772  0.51529  1.0000
  O   O5        1.0  0.97418  0.47810  0.58596  1.0000
  O   O6        1.0  0.96760  0.44037  0.52465  1.0000
  N   N9        1.0  0.89177  0.45678  0.35423  1.0000
  H   H87       1.0  0.88607  0.46578  0.40607  1.0000
