data_image0
_chemical_formula_structural       C16H16C2NHNC2NHNC3NC3NC5NC5NC36H26C4H4CNCHNCNCHN
_chemical_formula_sum              "C80 H50 N12"
_cell_length_a       34.2049
_cell_length_b       34.2049
_cell_length_c       14.633
_cell_angle_alpha    90
_cell_angle_beta     90
_cell_angle_gamma    89.831

_space_group_name_H-M_alt    "P 1"
_space_group_IT_number       1

loop_
  _space_group_symop_operation_xyz
  'x, y, z'

loop_
  _atom_site_type_symbol
  _atom_site_label
  _atom_site_symmetry_multiplicity
  _atom_site_fract_x
  _atom_site_fract_y
  _atom_site_fract_z
  _atom_site_occupancy
  C   C1        1.0  0.00902  0.22083  0.30044  1.0000
  C   C2        1.0  0.00791  0.17963  0.29730  1.0000
  C   C3        1.0  0.99164  0.30740  0.33762  1.0000
  C   C4        1.0  0.99345  0.34853  0.34453  1.0000
  C   C5        1.0  0.21912  0.01375  0.30019  1.0000
  C   C6        1.0  0.17792  0.01508  0.29726  1.0000
  C   C7        1.0  0.34648  0.03050  0.34239  1.0000
  C   C8        1.0  0.30532  0.03167  0.33576  1.0000
  C   C9        1.0  0.01141  0.84567  0.29722  1.0000
  C   C10       1.0  0.01068  0.80446  0.30032  1.0000
  C   C11       1.0  0.02955  0.67711  0.33842  1.0000
  C   C12       1.0  0.03021  0.71828  0.33189  1.0000
  C   C13       1.0  0.84372  0.00957  0.29797  1.0000
  C   C14       1.0  0.80252  0.01061  0.30142  1.0000
  C   C15       1.0  0.71638  0.99237  0.33906  1.0000
  C   C16       1.0  0.67523  0.99359  0.34637  1.0000
  H   H1        1.0  0.65914  0.97323  0.31168  1.0000
  H   H2        1.0  0.72874  0.97101  0.29944  1.0000
  H   H3        1.0  0.78735  0.00792  0.24150  1.0000
  H   H4        1.0  0.85726  0.00564  0.23625  1.0000
  H   H5        1.0  0.01313  0.85936  0.23515  1.0000
  H   H6        1.0  0.01136  0.78947  0.23985  1.0000
  H   H7        1.0  0.16426  0.01894  0.23566  1.0000
  H   H8        1.0  0.23415  0.01622  0.24002  1.0000
  H   H9        1.0  0.29286  0.05283  0.29573  1.0000
  H   H10       1.0  0.36247  0.05064  0.30677  1.0000
  H   H11       1.0  0.00416  0.16603  0.23562  1.0000
  H   H12       1.0  0.00654  0.23594  0.24038  1.0000
  H   H13       1.0  0.97326  0.36495  0.30983  1.0000
  H   H14       1.0  0.97004  0.29537  0.29836  1.0000
  H   H15       1.0  0.04976  0.73080  0.28790  1.0000
  H   H16       1.0  0.04841  0.66117  0.29878  1.0000
  C   C17       1.0  0.01054  0.55382  0.35349  1.0000
  C   C18       1.0  0.01132  0.53146  0.27253  1.0000
  N   N1        1.0  0.01176  0.49174  0.27821  1.0000
  H   H17       1.0  0.01135  0.54459  0.20980  1.0000
  N   N2        1.0  0.00994  0.59283  0.34958  1.0000
  C   C19       1.0  0.46972  0.01029  0.35449  1.0000
  C   C20       1.0  0.49214  0.01294  0.27387  1.0000
  N   N3        1.0  0.53185  0.01334  0.27981  1.0000
  H   H18       1.0  0.47907  0.01440  0.21114  1.0000
  N   N4        1.0  0.43073  0.00988  0.35023  1.0000
  C   C21       1.0  0.91034  0.08653  0.37572  1.0000
  C   C22       1.0  0.93917  0.11473  0.37593  1.0000
  C   C23       1.0  0.97552  0.09597  0.37464  1.0000
  N   N5        1.0  0.96727  0.05715  0.37392  1.0000
  C   C24       1.0  0.92827  0.04976  0.37499  1.0000
  C   C25       1.0  0.90803  0.01338  0.37541  1.0000
  C   C26       1.0  0.92658  0.97611  0.37553  1.0000
  N   N6        1.0  0.96534  0.96802  0.37468  1.0000
  C   C27       1.0  0.97261  0.92911  0.37598  1.0000
  C   C28       1.0  0.93604  0.91105  0.37758  1.0000
  C   C29       1.0  0.90775  0.93994  0.37755  1.0000
  C   C30       1.0  0.00946  0.90975  0.37585  1.0000
  C   C31       1.0  0.04628  0.92914  0.37526  1.0000
  N   N7        1.0  0.05454  0.96795  0.37503  1.0000
  C   C32       1.0  0.09353  0.97532  0.37529  1.0000
  C   C33       1.0  0.11146  0.93854  0.37514  1.0000
  C   C34       1.0  0.08262  0.91035  0.37538  1.0000
  C   C35       1.0  0.11378  0.01169  0.37549  1.0000
  C   C36       1.0  0.09522  0.04896  0.37523  1.0000
  N   N8        1.0  0.05647  0.05707  0.37454  1.0000
  C   C37       1.0  0.04920  0.09599  0.37512  1.0000
  C   C38       1.0  0.08580  0.11402  0.37593  1.0000
  C   C39       1.0  0.11408  0.08512  0.37637  1.0000
  C   C40       1.0  0.01234  0.11538  0.37501  1.0000
  C   C41       1.0  0.01248  0.15723  0.37775  1.0000
  C   C42       1.0  0.01788  0.17708  0.46138  1.0000
  C   C43       1.0  0.01920  0.21821  0.46416  1.0000
  C   C44       1.0  0.01511  0.24105  0.38379  1.0000
  C   C45       1.0  0.01764  0.28296  0.38715  1.0000
  C   C46       1.0  0.02159  0.36688  0.40091  1.0000
  C   C47       1.0  0.04804  0.34254  0.44902  1.0000
  C   C48       1.0  0.04619  0.30156  0.44200  1.0000
  C   C49       1.0  0.15562  0.01079  0.37789  1.0000
  C   C50       1.0  0.17557  0.00533  0.46141  1.0000
  C   C51       1.0  0.21671  0.00385  0.46398  1.0000
  C   C52       1.0  0.23948  0.00785  0.38349  1.0000
  C   C53       1.0  0.28145  0.00577  0.38672  1.0000
  C   C54       1.0  0.30069  0.97801  0.44292  1.0000
  C   C55       1.0  0.34173  0.97685  0.44987  1.0000
  C   C56       1.0  0.36540  0.00317  0.40009  1.0000
  C   C57       1.0  0.00936  0.86792  0.37840  1.0000
  C   C58       1.0  0.00763  0.78407  0.38438  1.0000
  C   C59       1.0  0.00592  0.80682  0.46536  1.0000
  C   C60       1.0  0.00676  0.84797  0.46262  1.0000
  C   C61       1.0  0.00606  0.74208  0.38787  1.0000
  C   C62       1.0  0.98053  0.72273  0.44915  1.0000
  C   C63       1.0  0.97990  0.68169  0.45602  1.0000
  C   C64       1.0  0.00451  0.65809  0.40113  1.0000
  C   C65       1.0  0.86619  0.01423  0.37825  1.0000
  C   C66       1.0  0.84641  0.01968  0.46199  1.0000
  C   C67       1.0  0.80527  0.02090  0.46507  1.0000
  C   C68       1.0  0.78234  0.01660  0.38492  1.0000
  C   C69       1.0  0.74039  0.01859  0.38871  1.0000
  C   C70       1.0  0.65644  0.02128  0.40345  1.0000
  C   C71       1.0  0.68032  0.04793  0.45176  1.0000
  C   C72       1.0  0.72133  0.04671  0.44423  1.0000
  H   H19       1.0  0.66804  0.06848  0.49395  1.0000
  H   H20       1.0  0.73720  0.06681  0.48020  1.0000
  H   H21       1.0  0.79216  0.02444  0.52737  1.0000
  H   H22       1.0  0.86187  0.02287  0.52142  1.0000
  H   H23       1.0  0.88104  0.09247  0.37663  1.0000
  H   H24       1.0  0.93390  0.14415  0.37713  1.0000
  H   H25       1.0  0.98692  0.03707  0.37315  1.0000
  H   H26       1.0  0.03489  0.98804  0.37548  1.0000
  H   H27       1.0  0.87832  0.93490  0.37908  1.0000
  H   H28       1.0  0.93037  0.88173  0.37893  1.0000
  H   H29       1.0  0.00538  0.86330  0.52263  1.0000
  H   H30       1.0  0.00456  0.79358  0.52798  1.0000
  H   H31       1.0  0.08787  0.88092  0.37564  1.0000
  H   H32       1.0  0.14076  0.93258  0.37501  1.0000
  H   H33       1.0  0.09150  0.14333  0.37642  1.0000
  H   H34       1.0  0.14351  0.09015  0.37739  1.0000
  H   H35       1.0  0.16023  0.00232  0.52108  1.0000
  H   H36       1.0  0.22994  0.00037  0.52617  1.0000
  H   H37       1.0  0.35418  0.95663  0.49263  1.0000
  H   H38       1.0  0.28492  0.95816  0.47991  1.0000
  H   H39       1.0  0.06618  0.28534  0.47781  1.0000
  H   H40       1.0  0.06891  0.35446  0.49070  1.0000
  H   H41       1.0  0.02289  0.23139  0.52633  1.0000
  H   H42       1.0  0.02116  0.16168  0.52090  1.0000
  H   H43       1.0  0.96191  0.73842  0.48989  1.0000
  H   H44       1.0  0.96133  0.66917  0.50244  1.0000
  C   C73       1.0  0.02267  0.40719  0.41501  1.0000
  C   C74       1.0  0.40568  0.00312  0.41407  1.0000
  C   C75       1.0  0.00509  0.61779  0.41462  1.0000
  C   C76       1.0  0.61616  0.02167  0.41799  1.0000
  H   H45       1.0  0.03320  0.41666  0.47438  1.0000
  H   H46       1.0  0.60662  0.03097  0.47845  1.0000
  H   H47       1.0  0.00051  0.60799  0.47780  1.0000
  H   H48       1.0  0.41537  0.99657  0.47641  1.0000
  C   C77       1.0  0.01081  0.49417  0.43972  1.0000
  N   N9        1.0  0.01022  0.53379  0.43399  1.0000
  C   C78       1.0  0.01183  0.47170  0.35856  1.0000
  H   H49       1.0  0.01005  0.48137  0.50270  1.0000
  N   N10       1.0  0.01214  0.43266  0.35483  1.0000
  C   C79       1.0  0.52929  0.00874  0.44097  1.0000
  N   N11       1.0  0.48967  0.00822  0.43496  1.0000
  C   C80       1.0  0.55181  0.01163  0.36017  1.0000
  H   H50       1.0  0.54204  0.00664  0.50384  1.0000
  N   N12       1.0  0.59084  0.01225  0.35662  1.0000
