data_image0
_chemical_formula_structural       C2HC2HC5N2HCH4C9HC7HCH4N3C8HC7HCH4N4C3HCH3CHC3HCH3CHC3HCH3CHC3HCH3CHC3HCH3CHC3HCH3CHC6H2N3C4H3CHC3HCH3CHC3HCH2C3HCH3CHC3HCH3CHC3HCH3CH
_chemical_formula_sum              "C108 H78 N12"
_cell_length_a       30.622
_cell_length_b       30.622
_cell_length_c       14.8295
_cell_angle_alpha    90.0004
_cell_angle_beta     89.9996
_cell_angle_gamma    120

_space_group_name_H-M_alt    "P 1"
_space_group_IT_number       1

loop_
  _space_group_symop_operation_xyz
  'x, y, z'

loop_
  _atom_site_type_symbol
  _atom_site_label
  _atom_site_symmetry_multiplicity
  _atom_site_fract_x
  _atom_site_fract_y
  _atom_site_fract_z
  _atom_site_occupancy
  C   C1        1.0  0.05104  0.55546  0.34565  1.0000
  C   C2        1.0  0.05207  0.46361  0.35301  1.0000
  H   H1        1.0  0.05223  0.43025  0.35316  1.0000
  C   C3        1.0  0.04987  0.60190  0.34565  1.0000
  C   C4        1.0  0.04884  0.69375  0.35306  1.0000
  H   H2        1.0  0.04869  0.72711  0.35321  1.0000
  C   C5        1.0  0.09858  0.50921  0.34730  1.0000
  C   C6        1.0  0.09788  0.55560  0.34699  1.0000
  C   C7        1.0  0.09567  0.69525  0.35178  1.0000
  C   C8        1.0  0.09592  0.64897  0.34832  1.0000
  C   C9        1.0  0.14158  0.64826  0.35435  1.0000
  N   N1        1.0  0.13939  0.50238  0.34134  1.0000
  N   N2        1.0  0.14041  0.73959  0.35246  1.0000
  H   H3        1.0  0.12912  0.79857  0.37414  1.0000
  C   C10       1.0  0.14224  0.60293  0.35598  1.0000
  H   H4        1.0  0.17529  0.68092  0.36235  1.0000
  H   H5        1.0  0.17593  0.60571  0.37082  1.0000
  H   H6        1.0  0.17680  0.44480  0.38145  1.0000
  H   H7        1.0  0.15728  0.87110  0.43856  1.0000
  C   C11       1.0  0.15614  0.78942  0.36095  1.0000
  C   C12       1.0  0.57368  0.60249  0.34565  1.0000
  C   C13       1.0  0.62075  0.60351  0.34832  1.0000
  C   C14       1.0  0.66703  0.65004  0.35174  1.0000
  C   C15       1.0  0.66553  0.69537  0.35302  1.0000
  C   C16       1.0  0.61993  0.69629  0.34734  1.0000
  C   C17       1.0  0.57354  0.64919  0.34698  1.0000
  C   C18       1.0  0.62004  0.55714  0.35441  1.0000
  C   C19       1.0  0.52621  0.64623  0.35587  1.0000
  H   H8        1.0  0.69889  0.72889  0.35316  1.0000
  C   C20       1.0  0.52724  0.55488  0.34565  1.0000
  C   C21       1.0  0.52738  0.50818  0.34701  1.0000
  C   C22       1.0  0.48098  0.46108  0.34733  1.0000
  C   C23       1.0  0.43539  0.46200  0.35296  1.0000
  C   C24       1.0  0.43389  0.50733  0.35171  1.0000
  C   C25       1.0  0.48017  0.55386  0.34826  1.0000
  C   C26       1.0  0.57471  0.51115  0.35606  1.0000
  H   H9        1.0  0.40203  0.42848  0.35317  1.0000
  C   C27       1.0  0.48088  0.60023  0.35433  1.0000
  H   H10       1.0  0.57749  0.48024  0.37081  1.0000
  H   H11       1.0  0.65270  0.55608  0.36232  1.0000
  H   H12       1.0  0.44823  0.60129  0.36233  1.0000
  H   H13       1.0  0.52341  0.67711  0.37089  1.0000
  N   N3        1.0  0.62675  0.74391  0.34135  1.0000
  N   N4        1.0  0.38955  0.50773  0.35241  1.0000
  N   N5        1.0  0.47416  0.41345  0.34136  1.0000
  C   C28       1.0  0.52665  0.07810  0.34549  1.0000
  C   C29       1.0  0.52564  0.12415  0.34819  1.0000
  C   C30       1.0  0.47910  0.12389  0.35170  1.0000
  C   C31       1.0  0.43377  0.07707  0.35297  1.0000
  C   C32       1.0  0.43285  0.03056  0.34727  1.0000
  C   C33       1.0  0.47995  0.03126  0.34683  1.0000
  C   C34       1.0  0.57201  0.16981  0.35422  1.0000
  C   C35       1.0  0.48292  0.98690  0.35581  1.0000
  H   H14       1.0  0.40026  0.07692  0.35324  1.0000
  C   C36       1.0  0.57426  0.07927  0.34547  1.0000
  C   C37       1.0  0.62096  0.12610  0.34682  1.0000
  C   C38       1.0  0.66806  0.12681  0.34722  1.0000
  C   C39       1.0  0.66714  0.08030  0.35287  1.0000
  C   C40       1.0  0.62181  0.03347  0.35164  1.0000
  C   C41       1.0  0.57528  0.03322  0.34813  1.0000
  C   C42       1.0  0.61800  0.17047  0.35583  1.0000
  H   H15       1.0  0.70065  0.08045  0.35321  1.0000
  C   C43       1.0  0.52891  0.98756  0.35416  1.0000
  H   H16       1.0  0.64888  0.20413  0.37089  1.0000
  H   H17       1.0  0.57305  0.20351  0.36241  1.0000
  H   H18       1.0  0.52785  0.95386  0.36240  1.0000
  H   H19       1.0  0.45204  0.95323  0.37091  1.0000
  N   N6        1.0  0.38522  0.98975  0.34136  1.0000
  N   N7        1.0  0.47951  0.16864  0.35240  1.0000
  N   N8        1.0  0.62141  0.98872  0.35236  1.0000
  N   N9        1.0  0.71569  0.16762  0.34131  1.0000
  C   C44       1.0  0.22619  0.51674  0.32786  1.0000
  C   C45       1.0  0.27781  0.55021  0.30562  1.0000
  C   C46       1.0  0.31382  0.53478  0.32022  1.0000
  H   H20       1.0  0.35042  0.55926  0.30242  1.0000
  C   C47       1.0  0.29590  0.60175  0.26823  1.0000
  H   H21       1.0  0.27727  0.59894  0.20399  1.0000
  H   H22       1.0  0.33650  0.62274  0.25607  1.0000
  H   H23       1.0  0.28726  0.62377  0.31538  1.0000
  C   C48       1.0  0.18858  0.53060  0.31701  1.0000
  H   H24       1.0  0.19843  0.56354  0.28487  1.0000
  C   C49       1.0  0.61239  0.81635  0.32783  1.0000
  C   C50       1.0  0.57892  0.83450  0.30561  1.0000
  C   C51       1.0  0.59434  0.88593  0.32023  1.0000
  H   H25       1.0  0.56987  0.89806  0.30238  1.0000
  C   C52       1.0  0.52738  0.80105  0.26821  1.0000
  H   H26       1.0  0.53020  0.78523  0.20397  1.0000
  H   H27       1.0  0.50639  0.82066  0.25604  1.0000
  H   H28       1.0  0.50536  0.77039  0.31534  1.0000
  C   C53       1.0  0.59853  0.76489  0.31701  1.0000
  H   H29       1.0  0.56558  0.74180  0.28490  1.0000
  C   C54       1.0  0.31279  0.90294  0.32791  1.0000
  C   C55       1.0  0.29463  0.85132  0.30569  1.0000
  C   C56       1.0  0.24319  0.81531  0.32029  1.0000
  H   H30       1.0  0.23107  0.77871  0.30249  1.0000
  C   C57       1.0  0.32808  0.83323  0.26831  1.0000
  H   H31       1.0  0.34391  0.85185  0.20407  1.0000
  H   H32       1.0  0.30847  0.79262  0.25616  1.0000
  H   H33       1.0  0.35874  0.84187  0.31546  1.0000
  C   C58       1.0  0.36424  0.94055  0.31706  1.0000
  H   H34       1.0  0.38734  0.93069  0.28495  1.0000
  C   C59       1.0  0.87472  0.64062  0.32787  1.0000
  C   C60       1.0  0.82310  0.60714  0.30567  1.0000
  C   C61       1.0  0.78709  0.62257  0.32030  1.0000
  H   H35       1.0  0.75049  0.59810  0.30247  1.0000
  C   C62       1.0  0.80501  0.55560  0.26830  1.0000
  H   H36       1.0  0.82363  0.55840  0.20406  1.0000
  H   H37       1.0  0.76441  0.53461  0.25615  1.0000
  H   H38       1.0  0.81365  0.53359  0.31544  1.0000
  C   C63       1.0  0.91233  0.62676  0.31706  1.0000
  H   H39       1.0  0.90246  0.59380  0.28496  1.0000
  C   C64       1.0  0.48852  0.34101  0.32787  1.0000
  C   C65       1.0  0.52199  0.32286  0.30563  1.0000
  C   C66       1.0  0.50656  0.27142  0.32023  1.0000
  H   H40       1.0  0.53103  0.25929  0.30242  1.0000
  C   C67       1.0  0.57352  0.35631  0.26823  1.0000
  H   H41       1.0  0.57071  0.37213  0.20399  1.0000
  H   H42       1.0  0.59451  0.33670  0.25606  1.0000
  H   H43       1.0  0.59554  0.38696  0.31537  1.0000
  C   C68       1.0  0.50237  0.39247  0.31703  1.0000
  H   H44       1.0  0.53532  0.41556  0.28490  1.0000
  C   C69       1.0  0.78813  0.25442  0.32786  1.0000
  C   C70       1.0  0.80628  0.30605  0.30567  1.0000
  C   C71       1.0  0.85771  0.34205  0.32030  1.0000
  H   H45       1.0  0.86984  0.37866  0.30247  1.0000
  C   C72       1.0  0.77283  0.32414  0.26828  1.0000
  H   H46       1.0  0.75701  0.30552  0.20403  1.0000
  H   H47       1.0  0.79243  0.36474  0.25614  1.0000
  H   H48       1.0  0.74216  0.31549  0.31542  1.0000
  C   C73       1.0  0.73666  0.21682  0.31703  1.0000
  H   H49       1.0  0.71357  0.22667  0.28489  1.0000
  C   C74       1.0  0.00499  0.50840  0.34830  1.0000
  C   C75       1.0  0.00524  0.46211  0.35175  1.0000
  C   C76       1.0  0.95934  0.50911  0.35439  1.0000
  C   C77       1.0  0.00303  0.60176  0.34700  1.0000
  C   C78       1.0  0.00233  0.64815  0.34737  1.0000
  C   C79       1.0  0.95866  0.55443  0.35584  1.0000
  H   H50       1.0  0.92499  0.55164  0.37094  1.0000
  H   H51       1.0  0.92562  0.47645  0.36237  1.0000
  N   N10       1.0  0.96050  0.41778  0.35245  1.0000
  N   N11       1.0  0.96152  0.65497  0.34139  1.0000
  N   N12       1.0  0.71137  0.64964  0.35244  1.0000
  C   C80       1.0  0.30121  0.48662  0.35441  1.0000
  C   C81       1.0  0.24958  0.45336  0.37768  1.0000
  C   C82       1.0  0.21360  0.46912  0.36414  1.0000
  C   C83       1.0  0.22951  0.40254  0.41960  1.0000
  H   H52       1.0  0.25805  0.39310  0.43855  1.0000
  H   H53       1.0  0.20351  0.37372  0.37280  1.0000
  H   H54       1.0  0.20897  0.40033  0.48125  1.0000
  C   C84       1.0  0.33971  0.47363  0.36089  1.0000
  H   H55       1.0  0.33057  0.43746  0.37409  1.0000
  C   C85       1.0  0.64251  0.92149  0.35437  1.0000
  C   C86       1.0  0.67578  0.90312  0.37763  1.0000
  C   C87       1.0  0.66001  0.85139  0.36412  1.0000
  H   H56       1.0  0.68433  0.83891  0.38145  1.0000
  C   C88       1.0  0.72658  0.93387  0.41963  1.0000
  H   H57       1.0  0.73601  0.97184  0.43858  1.0000
  H   H58       1.0  0.75542  0.93670  0.37289  1.0000
  H   H59       1.0  0.72876  0.91553  0.48130  1.0000
  C   C89       1.0  0.65551  0.97299  0.36085  1.0000
  H   H60       1.0  0.69168  0.00002  0.37400  1.0000
  C   C90       1.0  0.20764  0.82793  0.35445  1.0000
  C   C91       1.0  0.22602  0.87956  0.37772  1.0000
  C   C92       1.0  0.27775  0.91553  0.36417  1.0000
  H   H61       1.0  0.29023  0.95233  0.38147  1.0000
  C   C93       1.0  0.19526  0.89964  0.41961  1.0000
  H   H62       1.0  0.19244  0.92563  0.37280  1.0000
  H   H63       1.0  0.21358  0.92018  0.48127  1.0000
  C   C94       1.0  0.79971  0.67074  0.35441  1.0000
  C   C95       1.0  0.85134  0.70401  0.37765  1.0000
  C   C96       1.0  0.88731  0.68825  0.36414  1.0000
  H   H64       1.0  0.92411  0.71256  0.38145  1.0000
  C   C97       1.0  0.87140  0.75482  0.41963  1.0000
  H   H65       1.0  0.84286  0.76425  0.43858  1.0000
  H   H66       1.0  0.89741  0.78365  0.37286  1.0000
  H   H67       1.0  0.89193  0.75701  0.48129  1.0000
  C   C98       1.0  0.76120  0.68374  0.36092  1.0000
  H   H68       1.0  0.77035  0.71992  0.37402  1.0000
  C   C99       1.0  0.45840  0.23587  0.35443  1.0000
  C   C100      1.0  0.42514  0.25424  0.37771  1.0000
  C   C101      1.0  0.44090  0.30597  0.36416  1.0000
  H   H69       1.0  0.41658  0.31846  0.38148  1.0000
  C   C102      1.0  0.37432  0.22349  0.41964  1.0000
  H   H70       1.0  0.36488  0.18552  0.43859  1.0000
  H   H71       1.0  0.34550  0.22067  0.37284  1.0000
  H   H72       1.0  0.37211  0.24182  0.48130  1.0000
  C   C103      1.0  0.44541  0.18437  0.36092  1.0000
  H   H73       1.0  0.40924  0.15735  0.37412  1.0000
  C   C104      1.0  0.89326  0.32943  0.35442  1.0000
  C   C105      1.0  0.87490  0.27780  0.37765  1.0000
  C   C106      1.0  0.82316  0.24183  0.36413  1.0000
  H   H74       1.0  0.81068  0.20503  0.38144  1.0000
  C   C107      1.0  0.90564  0.25774  0.41963  1.0000
  H   H75       1.0  0.94361  0.28628  0.43860  1.0000
  H   H76       1.0  0.90847  0.23173  0.37288  1.0000
  H   H77       1.0  0.88730  0.23721  0.48130  1.0000
  C   C108      1.0  0.94476  0.36794  0.36093  1.0000
  H   H78       1.0  0.97179  0.35879  0.37404  1.0000
