data_image0
_chemical_formula_structural       C16H16C16H16C16H16C3HCH3NC3HCH3NC3HCH3NC3HCH3NC3HCH3NC3HCH3NC3NC3NC5NC5NC36H26C4H4C3NC3NC5NC5NC36H26C4H4C3NC3NC5NC5NC36H26C4H4C3HCH3NC3HCH3NC3HCH3NC3HCH3NC3HCH3NC3HCH3N
_chemical_formula_sum              "C264 H186 N24"
_cell_length_a       67.6011
_cell_length_b       67.6011
_cell_length_c       14.8218
_cell_angle_alpha    89.717
_cell_angle_beta     90.283
_cell_angle_gamma    120

_space_group_name_H-M_alt    "P 1"
_space_group_IT_number       1

loop_
  _space_group_symop_operation_xyz
  'x, y, z'

loop_
  _atom_site_type_symbol
  _atom_site_label
  _atom_site_symmetry_multiplicity
  _atom_site_fract_x
  _atom_site_fract_y
  _atom_site_fract_z
  _atom_site_occupancy
  C   C1        1.0  0.13115  0.68393  0.28949  1.0000
  C   C2        1.0  0.11208  0.66170  0.28387  1.0000
  C   C3        1.0  0.16550  0.73465  0.32316  1.0000
  C   C4        1.0  0.18586  0.75591  0.33127  1.0000
  C   C5        1.0  0.13130  0.54326  0.27913  1.0000
  C   C6        1.0  0.11318  0.54792  0.27743  1.0000
  C   C7        1.0  0.19516  0.54153  0.31893  1.0000
  C   C8        1.0  0.17699  0.54613  0.31729  1.0000
  C   C9        1.0  0.96914  0.47457  0.28408  1.0000
  C   C10       1.0  0.95024  0.45225  0.29004  1.0000
  C   C11       1.0  0.89657  0.37982  0.32995  1.0000
  C   C12       1.0  0.91671  0.40125  0.32131  1.0000
  C   C13       1.0  0.96873  0.58790  0.27731  1.0000
  C   C14       1.0  0.95047  0.59233  0.27909  1.0000
  C   C15       1.0  0.90455  0.58873  0.31747  1.0000
  C   C16       1.0  0.88616  0.59300  0.31926  1.0000
  H   H1        1.0  0.87143  0.58199  0.28601  1.0000
  H   H2        1.0  0.90232  0.57450  0.28442  1.0000
  H   H3        1.0  0.94177  0.59069  0.22037  1.0000
  H   H4        1.0  0.97246  0.58272  0.21820  1.0000
  H   H5        1.0  0.97386  0.48231  0.22224  1.0000
  H   H6        1.0  0.94167  0.44452  0.23200  1.0000
  H   H7        1.0  0.10942  0.55323  0.21833  1.0000
  H   H8        1.0  0.13987  0.54491  0.22038  1.0000
  H   H9        1.0  0.17938  0.56050  0.28441  1.0000
  H   H10       1.0  0.20991  0.55247  0.28574  1.0000
  H   H11       1.0  0.10661  0.65437  0.22180  1.0000
  H   H12       1.0  0.13909  0.69199  0.23092  1.0000
  H   H13       1.0  0.18821  0.76900  0.28949  1.0000
  H   H14       1.0  0.15369  0.73309  0.27610  1.0000
  H   H15       1.0  0.92796  0.40332  0.27130  1.0000
  H   H16       1.0  0.89382  0.36714  0.28555  1.0000
  C   C17       1.0  0.42381  0.53962  0.29208  1.0000
  C   C18       1.0  0.44602  0.54276  0.28673  1.0000
  C   C19       1.0  0.37305  0.52312  0.32491  1.0000
  C   C20       1.0  0.35177  0.52219  0.33268  1.0000
  C   C21       1.0  0.56440  0.68040  0.28288  1.0000
  C   C22       1.0  0.55974  0.65763  0.28114  1.0000
  C   C23       1.0  0.56614  0.74591  0.32274  1.0000
  C   C24       1.0  0.56153  0.72313  0.32112  1.0000
  C   C25       1.0  0.63302  0.58687  0.28699  1.0000
  C   C26       1.0  0.65535  0.59029  0.29265  1.0000
  C   C27       1.0  0.72781  0.60900  0.33127  1.0000
  C   C28       1.0  0.70637  0.60771  0.32301  1.0000
  C   C29       1.0  0.51977  0.47319  0.28097  1.0000
  C   C30       1.0  0.51535  0.45049  0.28280  1.0000
  C   C31       1.0  0.51894  0.40810  0.32127  1.0000
  C   C32       1.0  0.51466  0.38543  0.32307  1.0000
  H   H17       1.0  0.52568  0.38177  0.28987  1.0000
  H   H18       1.0  0.53317  0.42016  0.28823  1.0000
  H   H19       1.0  0.51700  0.44357  0.22409  1.0000
  H   H20       1.0  0.52497  0.48222  0.22186  1.0000
  H   H21       1.0  0.62520  0.58388  0.22528  1.0000
  H   H22       1.0  0.66300  0.58949  0.23451  1.0000
  H   H23       1.0  0.55443  0.64868  0.22203  1.0000
  H   H24       1.0  0.56277  0.68746  0.22412  1.0000
  H   H25       1.0  0.54717  0.71123  0.28819  1.0000
  H   H26       1.0  0.55521  0.74980  0.28955  1.0000
  H   H27       1.0  0.45343  0.54484  0.22476  1.0000
  H   H28       1.0  0.41579  0.53964  0.23342  1.0000
  H   H29       1.0  0.33874  0.51160  0.29059  1.0000
  H   H30       1.0  0.37466  0.51303  0.27773  1.0000
  H   H31       1.0  0.70423  0.61694  0.27289  1.0000
  H   H32       1.0  0.74043  0.61896  0.28657  1.0000
  C   C33       1.0  0.56807  0.97650  0.29514  1.0000
  C   C34       1.0  0.56493  0.99560  0.28965  1.0000
  C   C35       1.0  0.58458  0.94220  0.32830  1.0000
  C   C36       1.0  0.58554  0.92186  0.33624  1.0000
  C   C37       1.0  0.42736  0.97645  0.28369  1.0000
  C   C38       1.0  0.45013  0.99456  0.28247  1.0000
  C   C39       1.0  0.36181  0.91255  0.32185  1.0000
  C   C40       1.0  0.38459  0.93072  0.32075  1.0000
  C   C41       1.0  0.52075  0.13849  0.28993  1.0000
  C   C42       1.0  0.51735  0.15740  0.29576  1.0000
  C   C43       1.0  0.49860  0.21102  0.33486  1.0000
  C   C44       1.0  0.49990  0.19090  0.32646  1.0000
  C   C45       1.0  0.63437  0.13885  0.28228  1.0000
  C   C46       1.0  0.65706  0.15712  0.28358  1.0000
  C   C47       1.0  0.69951  0.20306  0.32091  1.0000
  C   C48       1.0  0.72219  0.22143  0.32214  1.0000
  H   H33       1.0  0.72580  0.23614  0.28873  1.0000
  H   H34       1.0  0.68741  0.20526  0.28805  1.0000
  H   H35       1.0  0.66392  0.16575  0.22468  1.0000
  H   H36       1.0  0.62526  0.13507  0.22333  1.0000
  H   H37       1.0  0.52370  0.13379  0.22815  1.0000
  H   H38       1.0  0.51809  0.16596  0.23765  1.0000
  H   H39       1.0  0.45915  0.99839  0.22353  1.0000
  H   H40       1.0  0.42038  0.96795  0.22474  1.0000
  H   H41       1.0  0.39653  0.92837  0.28800  1.0000
  H   H42       1.0  0.35796  0.89784  0.28840  1.0000
  H   H43       1.0  0.56291  0.00107  0.22763  1.0000
  H   H44       1.0  0.56811  0.96861  0.23652  1.0000
  H   H45       1.0  0.59617  0.91952  0.29431  1.0000
  H   H46       1.0  0.59470  0.95402  0.28122  1.0000
  H   H47       1.0  0.49067  0.17964  0.27636  1.0000
  H   H48       1.0  0.48862  0.21377  0.29025  1.0000
  C   C49       1.0  0.29154  0.52761  0.35181  1.0000
  C   C50       1.0  0.28272  0.53205  0.27176  1.0000
  C   C51       1.0  0.26222  0.53289  0.27605  1.0000
  H   H49       1.0  0.25616  0.53661  0.21872  1.0000
  C   C52       1.0  0.29431  0.53656  0.18272  1.0000
  H   H50       1.0  0.30991  0.53556  0.18467  1.0000
  H   H51       1.0  0.29880  0.55362  0.15916  1.0000
  H   H52       1.0  0.28280  0.52406  0.13361  1.0000
  N   N1        1.0  0.31169  0.52815  0.35013  1.0000
  C   C53       1.0  0.58007  0.85614  0.35552  1.0000
  C   C54       1.0  0.57561  0.84304  0.27550  1.0000
  C   C55       1.0  0.57479  0.82170  0.27981  1.0000
  H   H53       1.0  0.57106  0.81203  0.22251  1.0000
  C   C56       1.0  0.57108  0.85029  0.18648  1.0000
  H   H54       1.0  0.57207  0.86689  0.18839  1.0000
  H   H55       1.0  0.55401  0.83775  0.16298  1.0000
  H   H56       1.0  0.58357  0.85138  0.13732  1.0000
  N   N2        1.0  0.57951  0.87574  0.35380  1.0000
  C   C57       1.0  0.25153  0.81615  0.35161  1.0000
  C   C58       1.0  0.26473  0.82507  0.27190  1.0000
  C   C59       1.0  0.28607  0.84557  0.27681  1.0000
  H   H57       1.0  0.29582  0.85170  0.21972  1.0000
  C   C60       1.0  0.25759  0.81360  0.18260  1.0000
  H   H58       1.0  0.24099  0.79800  0.18407  1.0000
  H   H59       1.0  0.27015  0.80915  0.15918  1.0000
  H   H60       1.0  0.25657  0.82518  0.13362  1.0000
  N   N3        1.0  0.23193  0.79600  0.34939  1.0000
  C   C61       1.0  0.78883  0.60515  0.35358  1.0000
  C   C62       1.0  0.79750  0.60075  0.27361  1.0000
  C   C63       1.0  0.81819  0.60026  0.27768  1.0000
  H   H61       1.0  0.82416  0.59657  0.22043  1.0000
  C   C64       1.0  0.78558  0.59595  0.18490  1.0000
  H   H62       1.0  0.76984  0.59669  0.18698  1.0000
  H   H63       1.0  0.78125  0.57892  0.16209  1.0000
  H   H64       1.0  0.79681  0.60845  0.13515  1.0000
  N   N4        1.0  0.76854  0.60431  0.35207  1.0000
  C   C65       1.0  0.50250  0.27587  0.35732  1.0000
  C   C66       1.0  0.50691  0.28912  0.27738  1.0000
  C   C67       1.0  0.50740  0.31030  0.28148  1.0000
  H   H65       1.0  0.51108  0.32007  0.22425  1.0000
  C   C68       1.0  0.51172  0.28221  0.18866  1.0000
  H   H66       1.0  0.51098  0.26573  0.19070  1.0000
  H   H67       1.0  0.52876  0.29497  0.16588  1.0000
  H   H68       1.0  0.49922  0.28104  0.13890  1.0000
  N   N5        1.0  0.50334  0.25642  0.35576  1.0000
  C   C69       1.0  0.83179  0.31880  0.35347  1.0000
  C   C70       1.0  0.81844  0.31001  0.27382  1.0000
  C   C71       1.0  0.79728  0.28931  0.27847  1.0000
  H   H69       1.0  0.78743  0.28327  0.22145  1.0000
  C   C72       1.0  0.82525  0.32181  0.18484  1.0000
  H   H70       1.0  0.84173  0.33756  0.18647  1.0000
  H   H71       1.0  0.81245  0.32609  0.16213  1.0000
  H   H72       1.0  0.82636  0.31052  0.13523  1.0000
  N   N6        1.0  0.85123  0.33909  0.35143  1.0000
  C   C73       1.0  0.02970  0.62461  0.35238  1.0000
  C   C74       1.0  0.05331  0.63628  0.35342  1.0000
  C   C75       1.0  0.06064  0.62029  0.35617  1.0000
  N   N7        1.0  0.04124  0.59960  0.35688  1.0000
  C   C76       1.0  0.02201  0.60120  0.35520  1.0000
  C   C77       1.0  0.99865  0.58361  0.35635  1.0000
  C   C78       1.0  0.99113  0.55984  0.35825  1.0000
  N   N8        1.0  0.00391  0.54957  0.35596  1.0000
  C   C79       1.0  0.99093  0.52653  0.35939  1.0000
  C   C80       1.0  0.96832  0.52173  0.36414  1.0000
  C   C81       1.0  0.96845  0.54220  0.36352  1.0000
  C   C82       1.0  0.99819  0.51010  0.35848  1.0000
  C   C83       1.0  0.02143  0.51553  0.35634  1.0000
  N   N9        1.0  0.04084  0.53622  0.35739  1.0000
  C   C84       1.0  0.06006  0.53461  0.35539  1.0000
  C   C85       1.0  0.05237  0.51122  0.35214  1.0000
  C   C86       1.0  0.02876  0.49955  0.35306  1.0000
  C   C87       1.0  0.08342  0.55220  0.35644  1.0000
  C   C88       1.0  0.09095  0.57596  0.35812  1.0000
  N   N10       1.0  0.07816  0.58624  0.35606  1.0000
  C   C89       1.0  0.09115  0.60927  0.35916  1.0000
  C   C90       1.0  0.11378  0.61407  0.36329  1.0000
  C   C91       1.0  0.11365  0.59360  0.36286  1.0000
  C   C92       1.0  0.08389  0.62571  0.35841  1.0000
  C   C93       1.0  0.10131  0.64922  0.36283  1.0000
  C   C94       1.0  0.10983  0.65961  0.44735  1.0000
  C   C95       1.0  0.12893  0.68176  0.45265  1.0000
  C   C96       1.0  0.14030  0.69427  0.37403  1.0000
  C   C97       1.0  0.16096  0.71599  0.38047  1.0000
  C   C98       1.0  0.20259  0.75932  0.39681  1.0000
  C   C99       1.0  0.19818  0.74058  0.45311  1.0000
  C   C100      1.0  0.17791  0.71943  0.44494  1.0000
  C   C101      1.0  0.10063  0.54577  0.35642  1.0000
  C   C102      1.0  0.10656  0.53867  0.43686  1.0000
  C   C103      1.0  0.12457  0.53385  0.43813  1.0000
  C   C104      1.0  0.13745  0.53619  0.35952  1.0000
  C   C105      1.0  0.15603  0.53162  0.36134  1.0000
  C   C106      1.0  0.15407  0.51229  0.40711  1.0000
  C   C107      1.0  0.17214  0.50757  0.40822  1.0000
  C   C108      1.0  0.19308  0.52209  0.36425  1.0000
  C   C109      1.0  0.98080  0.48658  0.36264  1.0000
  C   C110      1.0  0.94220  0.44129  0.37460  1.0000
  C   C111      1.0  0.95444  0.45334  0.45268  1.0000
  C   C112      1.0  0.97334  0.47560  0.44702  1.0000
  C   C113      1.0  0.92178  0.41938  0.38182  1.0000
  C   C114      1.0  0.90560  0.41521  0.45025  1.0000
  C   C115      1.0  0.88556  0.39389  0.45896  1.0000
  C   C116      1.0  0.88060  0.37569  0.39929  1.0000
  C   C117      1.0  0.98142  0.59001  0.35630  1.0000
  C   C118      1.0  0.97550  0.59686  0.43681  1.0000
  C   C119      1.0  0.95734  0.60147  0.43815  1.0000
  C   C120      1.0  0.94430  0.59912  0.35958  1.0000
  C   C121      1.0  0.92551  0.60337  0.36154  1.0000
  C   C122      1.0  0.88803  0.61224  0.36477  1.0000
  C   C123      1.0  0.90896  0.62689  0.40877  1.0000
  C   C124      1.0  0.92724  0.62248  0.40756  1.0000
  H   H73       1.0  0.91116  0.64105  0.44233  1.0000
  H   H74       1.0  0.94214  0.63381  0.43907  1.0000
  H   H75       1.0  0.95325  0.60585  0.49830  1.0000
  H   H76       1.0  0.98408  0.59811  0.49549  1.0000
  H   H77       1.0  0.01995  0.63226  0.35050  1.0000
  H   H78       1.0  0.06328  0.65366  0.35217  1.0000
  H   H79       1.0  0.04114  0.58536  0.36055  1.0000
  H   H80       1.0  0.04095  0.55044  0.36154  1.0000
  H   H81       1.0  0.95415  0.54365  0.36735  1.0000
  H   H82       1.0  0.95391  0.50605  0.36810  1.0000
  H   H83       1.0  0.98121  0.48400  0.50521  1.0000
  H   H84       1.0  0.94949  0.44612  0.51524  1.0000
  H   H85       1.0  0.01878  0.48217  0.35126  1.0000
  H   H86       1.0  0.06211  0.50357  0.34970  1.0000
  H   H87       1.0  0.12820  0.62974  0.36673  1.0000
  H   H88       1.0  0.12796  0.59214  0.36632  1.0000
  H   H89       1.0  0.09807  0.53737  0.49553  1.0000
  H   H90       1.0  0.12865  0.52926  0.49822  1.0000
  H   H91       1.0  0.16979  0.49326  0.44166  1.0000
  H   H92       1.0  0.13916  0.50105  0.43864  1.0000
  H   H93       1.0  0.17584  0.70639  0.48635  1.0000
  H   H94       1.0  0.20980  0.74207  0.50106  1.0000
  H   H95       1.0  0.13469  0.68854  0.51529  1.0000
  H   H96       1.0  0.10264  0.65085  0.50574  1.0000
  H   H97       1.0  0.90805  0.42786  0.49424  1.0000
  H   H98       1.0  0.87448  0.39188  0.50976  1.0000
  C   C125      1.0  0.22277  0.78008  0.40942  1.0000
  C   C126      1.0  0.21050  0.51669  0.36535  1.0000
  C   C127      1.0  0.86061  0.35475  0.41207  1.0000
  C   C128      1.0  0.87039  0.61731  0.36595  1.0000
  H   H99       1.0  0.23124  0.78222  0.46702  1.0000
  H   H100      1.0  0.87428  0.63338  0.37748  1.0000
  H   H101      1.0  0.85245  0.35225  0.47042  1.0000
  H   H102      1.0  0.20642  0.50056  0.37719  1.0000
  C   C129      1.0  0.48306  0.49728  0.35583  1.0000
  C   C130      1.0  0.47139  0.50922  0.35676  1.0000
  C   C131      1.0  0.48737  0.53254  0.35957  1.0000
  N   N11       1.0  0.50806  0.53383  0.36042  1.0000
  C   C132      1.0  0.50646  0.51300  0.35873  1.0000
  C   C133      1.0  0.52406  0.50724  0.35995  1.0000
  C   C134      1.0  0.54782  0.52348  0.36178  1.0000
  N   N12       1.0  0.55810  0.54654  0.35943  1.0000
  C   C135      1.0  0.58113  0.55658  0.36278  1.0000
  C   C136      1.0  0.58594  0.53877  0.36748  1.0000
  C   C137      1.0  0.56547  0.51843  0.36708  1.0000
  C   C138      1.0  0.59757  0.58029  0.36184  1.0000
  C   C139      1.0  0.59213  0.59810  0.35984  1.0000
  N   N13       1.0  0.57144  0.59681  0.36103  1.0000
  C   C140      1.0  0.57304  0.61764  0.35904  1.0000
  C   C141      1.0  0.59644  0.63335  0.35579  1.0000
  C   C142      1.0  0.60811  0.62141  0.35660  1.0000
  C   C143      1.0  0.55545  0.62340  0.36009  1.0000
  C   C144      1.0  0.53169  0.60717  0.36174  1.0000
  N   N14       1.0  0.52142  0.58410  0.35961  1.0000
  C   C145      1.0  0.49838  0.57406  0.36260  1.0000
  C   C146      1.0  0.49358  0.59187  0.36673  1.0000
  C   C147      1.0  0.51405  0.61221  0.36642  1.0000
  C   C148      1.0  0.48194  0.55035  0.36174  1.0000
  C   C149      1.0  0.45844  0.54426  0.36585  1.0000
  C   C150      1.0  0.44795  0.54211  0.45023  1.0000
  C   C151      1.0  0.42581  0.53906  0.45525  1.0000
  C   C152      1.0  0.41337  0.53814  0.37648  1.0000
  C   C153      1.0  0.39163  0.53704  0.38264  1.0000
  C   C154      1.0  0.34828  0.53529  0.39833  1.0000
  C   C155      1.0  0.36694  0.54943  0.45507  1.0000
  C   C156      1.0  0.38810  0.55033  0.44720  1.0000
  C   C157      1.0  0.56188  0.64705  0.36013  1.0000
  C   C158      1.0  0.56898  0.65989  0.44059  1.0000
  C   C159      1.0  0.57380  0.68272  0.44189  1.0000
  C   C160      1.0  0.57147  0.69344  0.36329  1.0000
  C   C161      1.0  0.57604  0.71659  0.36513  1.0000
  C   C162      1.0  0.59538  0.73385  0.41094  1.0000
  C   C163      1.0  0.60011  0.75665  0.41201  1.0000
  C   C164      1.0  0.58559  0.76316  0.36806  1.0000
  C   C165      1.0  0.62109  0.58640  0.36572  1.0000
  C   C166      1.0  0.66640  0.59311  0.37704  1.0000
  C   C167      1.0  0.65443  0.59320  0.45526  1.0000
  C   C168      1.0  0.63216  0.58984  0.44992  1.0000
  C   C169      1.0  0.68833  0.59461  0.38394  1.0000
  C   C170      1.0  0.69259  0.58253  0.45247  1.0000
  C   C171      1.0  0.71392  0.58380  0.46085  1.0000
  C   C172      1.0  0.73204  0.59710  0.40072  1.0000
  C   C173      1.0  0.51766  0.48360  0.35993  1.0000
  C   C174      1.0  0.51080  0.47066  0.44046  1.0000
  C   C175      1.0  0.50621  0.44790  0.44185  1.0000
  C   C176      1.0  0.50855  0.43736  0.36329  1.0000
  C   C177      1.0  0.50430  0.41432  0.36528  1.0000
  C   C178      1.0  0.49542  0.36796  0.36858  1.0000
  C   C179      1.0  0.48077  0.37415  0.41255  1.0000
  C   C180      1.0  0.48517  0.39684  0.41126  1.0000
  H   H103      1.0  0.46661  0.36211  0.44610  1.0000
  H   H104      1.0  0.47385  0.40035  0.44279  1.0000
  H   H105      1.0  0.50181  0.43929  0.50199  1.0000
  H   H106      1.0  0.50955  0.47787  0.49912  1.0000
  H   H107      1.0  0.47541  0.47989  0.35391  1.0000
  H   H108      1.0  0.45401  0.50182  0.35541  1.0000
  H   H109      1.0  0.52230  0.54795  0.36416  1.0000
  H   H110      1.0  0.55722  0.58268  0.36496  1.0000
  H   H111      1.0  0.56402  0.50267  0.37094  1.0000
  H   H112      1.0  0.60162  0.54003  0.37156  1.0000
  H   H113      1.0  0.62382  0.58922  0.50822  1.0000
  H   H114      1.0  0.66173  0.59541  0.51772  1.0000
  H   H115      1.0  0.62548  0.62882  0.35471  1.0000
  H   H116      1.0  0.60408  0.65075  0.35333  1.0000
  H   H117      1.0  0.47790  0.59061  0.37008  1.0000
  H   H118      1.0  0.51550  0.62797  0.36985  1.0000
  H   H119      1.0  0.57029  0.65257  0.49923  1.0000
  H   H120      1.0  0.57841  0.69127  0.50197  1.0000
  H   H121      1.0  0.61442  0.76853  0.44543  1.0000
  H   H122      1.0  0.60662  0.73012  0.44238  1.0000
  H   H123      1.0  0.40109  0.56117  0.48893  1.0000
  H   H124      1.0  0.36538  0.55940  0.50310  1.0000
  H   H125      1.0  0.41896  0.53785  0.51780  1.0000
  H   H126      1.0  0.45668  0.54356  0.50874  1.0000
  H   H127      1.0  0.68001  0.57230  0.49679  1.0000
  H   H128      1.0  0.71600  0.57470  0.51173  1.0000
  C   C181      1.0  0.32750  0.53467  0.41059  1.0000
  C   C182      1.0  0.59100  0.78598  0.36916  1.0000
  C   C183      1.0  0.75299  0.59803  0.41313  1.0000
  C   C184      1.0  0.49034  0.34524  0.36982  1.0000
  H   H129      1.0  0.32528  0.54081  0.46820  1.0000
  H   H130      1.0  0.47428  0.33304  0.38130  1.0000
  H   H131      1.0  0.75559  0.59234  0.47153  1.0000
  H   H132      1.0  0.60713  0.79800  0.38089  1.0000
  C   C185      1.0  0.61037  0.07795  0.35825  1.0000
  C   C186      1.0  0.59843  0.05435  0.35939  1.0000
  C   C187      1.0  0.57512  0.04701  0.36220  1.0000
  N   N15       1.0  0.57383  0.06641  0.36293  1.0000
  C   C188      1.0  0.59466  0.08564  0.36104  1.0000
  C   C189      1.0  0.60042  0.10900  0.36198  1.0000
  C   C190      1.0  0.58418  0.11652  0.36395  1.0000
  N   N16       1.0  0.56112  0.10374  0.36182  1.0000
  C   C191      1.0  0.55108  0.11672  0.36532  1.0000
  C   C192      1.0  0.56890  0.13933  0.36997  1.0000
  C   C193      1.0  0.58924  0.13920  0.36920  1.0000
  C   C194      1.0  0.52737  0.10945  0.36451  1.0000
  C   C195      1.0  0.50957  0.08621  0.36233  1.0000
  N   N17       1.0  0.51085  0.06681  0.36341  1.0000
  C   C196      1.0  0.49002  0.04759  0.36124  1.0000
  C   C197      1.0  0.47431  0.05528  0.35791  1.0000
  C   C198      1.0  0.48625  0.07888  0.35894  1.0000
  C   C199      1.0  0.48426  0.02423  0.36220  1.0000
  C   C200      1.0  0.50049  0.01670  0.36402  1.0000
  N   N18       1.0  0.52355  0.02949  0.36208  1.0000
  C   C201      1.0  0.53360  0.01650  0.36516  1.0000
  C   C202      1.0  0.51578  0.99387  0.36920  1.0000
  C   C203      1.0  0.49544  0.99400  0.36867  1.0000
  C   C204      1.0  0.55731  0.02377  0.36441  1.0000
  C   C205      1.0  0.56340  0.00634  0.36869  1.0000
  C   C206      1.0  0.56549  0.99782  0.45314  1.0000
  C   C207      1.0  0.56855  0.97872  0.45830  1.0000
  C   C208      1.0  0.56952  0.96737  0.37961  1.0000
  C   C209      1.0  0.57063  0.94672  0.38590  1.0000
  C   C210      1.0  0.57243  0.90512  0.40187  1.0000
  C   C211      1.0  0.55825  0.90951  0.45845  1.0000
  C   C212      1.0  0.55733  0.92977  0.45044  1.0000
  C   C213      1.0  0.46061  0.00702  0.36175  1.0000
  C   C214      1.0  0.44767  0.00100  0.44196  1.0000
  C   C215      1.0  0.42483  0.98300  0.44272  1.0000
  C   C216      1.0  0.41422  0.97021  0.36384  1.0000
  C   C217      1.0  0.39107  0.95163  0.36513  1.0000
  C   C218      1.0  0.37374  0.95353  0.41069  1.0000
  C   C219      1.0  0.35094  0.93546  0.41124  1.0000
  C   C220      1.0  0.34449  0.91458  0.36692  1.0000
  C   C221      1.0  0.52126  0.12685  0.36857  1.0000
  C   C222      1.0  0.51456  0.16543  0.38023  1.0000
  C   C223      1.0  0.51452  0.15321  0.45836  1.0000
  C   C224      1.0  0.51789  0.13432  0.45287  1.0000
  C   C225      1.0  0.51304  0.18584  0.38726  1.0000
  C   C226      1.0  0.52513  0.20202  0.45581  1.0000
  C   C227      1.0  0.52384  0.22205  0.46429  1.0000
  C   C228      1.0  0.51051  0.22699  0.40429  1.0000
  C   C229      1.0  0.62405  0.12623  0.36152  1.0000
  C   C230      1.0  0.63710  0.13223  0.44179  1.0000
  C   C231      1.0  0.65986  0.15039  0.44265  1.0000
  C   C232      1.0  0.67029  0.16336  0.36382  1.0000
  C   C233      1.0  0.69334  0.18214  0.36528  1.0000
  C   C234      1.0  0.73971  0.21961  0.36740  1.0000
  C   C235      1.0  0.73357  0.19872  0.41171  1.0000
  C   C236      1.0  0.71088  0.18044  0.41100  1.0000
  H   H133      1.0  0.74565  0.19656  0.44511  1.0000
  H   H134      1.0  0.70740  0.16558  0.44275  1.0000
  H   H135      1.0  0.66853  0.15455  0.50264  1.0000
  H   H136      1.0  0.62995  0.12372  0.50065  1.0000
  H   H137      1.0  0.62777  0.08770  0.35617  1.0000
  H   H138      1.0  0.60583  0.04437  0.35808  1.0000
  H   H139      1.0  0.55970  0.06651  0.36638  1.0000
  H   H140      1.0  0.52498  0.06670  0.36764  1.0000
  H   H141      1.0  0.60500  0.15350  0.37314  1.0000
  H   H142      1.0  0.56763  0.15373  0.37414  1.0000
  H   H143      1.0  0.51852  0.12645  0.51110  1.0000
  H   H144      1.0  0.51233  0.15815  0.52088  1.0000
  H   H145      1.0  0.47885  0.08886  0.35711  1.0000
  H   H146      1.0  0.45691  0.04554  0.35539  1.0000
  H   H147      1.0  0.51704  0.97945  0.37251  1.0000
  H   H148      1.0  0.47968  0.97969  0.37195  1.0000
  H   H149      1.0  0.45491  0.00944  0.50080  1.0000
  H   H150      1.0  0.41622  0.97885  0.50265  1.0000
  H   H151      1.0  0.33902  0.93778  0.44453  1.0000
  H   H152      1.0  0.37744  0.96840  0.44243  1.0000
  H   H153      1.0  0.54646  0.93182  0.49206  1.0000
  H   H154      1.0  0.54828  0.89788  0.50647  1.0000
  H   H155      1.0  0.56973  0.97295  0.52090  1.0000
  H   H156      1.0  0.56402  0.00498  0.51159  1.0000
  H   H157      1.0  0.53539  0.19958  0.49999  1.0000
  H   H158      1.0  0.53296  0.23313  0.51515  1.0000
  C   C237      1.0  0.57309  0.88497  0.41432  1.0000
  C   C238      1.0  0.32167  0.89716  0.36750  1.0000
  C   C239      1.0  0.50956  0.24697  0.41685  1.0000
  C   C240      1.0  0.76243  0.23724  0.36808  1.0000
  H   H159      1.0  0.56703  0.87655  0.47212  1.0000
  H   H160      1.0  0.77464  0.23335  0.37947  1.0000
  H   H161      1.0  0.51519  0.25508  0.47539  1.0000
  H   H162      1.0  0.30963  0.90123  0.37920  1.0000
  C   C241      1.0  0.24996  0.52903  0.35719  1.0000
  C   C242      1.0  0.25846  0.52419  0.43718  1.0000
  C   C243      1.0  0.27885  0.52318  0.43258  1.0000
  H   H163      1.0  0.28487  0.51960  0.49023  1.0000
  C   C244      1.0  0.24752  0.52080  0.52710  1.0000
  H   H164      1.0  0.23271  0.52314  0.52640  1.0000
  H   H165      1.0  0.25979  0.53303  0.57513  1.0000
  H   H166      1.0  0.24202  0.50355  0.55138  1.0000
  N   N19       1.0  0.23172  0.53178  0.35510  1.0000
  C   C245      1.0  0.57868  0.81313  0.36094  1.0000
  C   C246      1.0  0.58352  0.82631  0.44091  1.0000
  C   C247      1.0  0.58451  0.84771  0.43629  1.0000
  H   H167      1.0  0.58810  0.85719  0.49393  1.0000
  C   C248      1.0  0.58691  0.81857  0.53085  1.0000
  H   H168      1.0  0.58459  0.80143  0.53016  1.0000
  H   H169      1.0  0.57467  0.81850  0.57885  1.0000
  H   H170      1.0  0.60416  0.83029  0.55514  1.0000
  N   N20       1.0  0.57591  0.79215  0.35891  1.0000
  C   C249      1.0  0.29454  0.85771  0.35826  1.0000
  C   C250      1.0  0.28125  0.84911  0.43790  1.0000
  C   C251      1.0  0.25984  0.82874  0.43267  1.0000
  H   H171      1.0  0.25028  0.82263  0.49009  1.0000
  C   C252      1.0  0.28886  0.85992  0.52811  1.0000
  H   H172      1.0  0.30602  0.87472  0.52791  1.0000
  H   H173      1.0  0.28884  0.84758  0.57596  1.0000
  H   H174      1.0  0.27714  0.86541  0.55227  1.0000
  N   N21       1.0  0.31552  0.87595  0.35677  1.0000
  C   C253      1.0  0.83078  0.60441  0.35850  1.0000
  C   C254      1.0  0.82242  0.60921  0.43839  1.0000
  C   C255      1.0  0.80184  0.60989  0.43399  1.0000
  H   H175      1.0  0.79593  0.61345  0.49157  1.0000
  C   C256      1.0  0.83370  0.61288  0.52805  1.0000
  H   H176      1.0  0.84864  0.61076  0.52731  1.0000
  H   H177      1.0  0.82169  0.60065  0.57673  1.0000
  H   H178      1.0  0.83909  0.63014  0.55152  1.0000
  N   N22       1.0  0.84921  0.60200  0.35625  1.0000
  C   C257      1.0  0.50323  0.31854  0.36231  1.0000
  C   C258      1.0  0.49844  0.30521  0.44218  1.0000
  C   C259      1.0  0.49777  0.28396  0.43775  1.0000
  H   H179      1.0  0.49420  0.27437  0.49531  1.0000
  C   C260      1.0  0.49476  0.31261  0.53184  1.0000
  H   H180      1.0  0.49687  0.32967  0.53112  1.0000
  H   H181      1.0  0.50699  0.31273  0.58053  1.0000
  H   H182      1.0  0.47750  0.30068  0.55530  1.0000
  N   N23       1.0  0.50565  0.33940  0.36007  1.0000
  C   C261      1.0  0.78914  0.27683  0.35958  1.0000
  C   C262      1.0  0.80257  0.28532  0.43918  1.0000
  C   C263      1.0  0.82380  0.30590  0.43419  1.0000
  H   H183      1.0  0.83347  0.31190  0.49155  1.0000
  C   C264      1.0  0.79527  0.27417  0.52911  1.0000
  H   H184      1.0  0.77822  0.25922  0.52882  1.0000
  H   H185      1.0  0.79520  0.28625  0.57756  1.0000
  H   H186      1.0  0.80724  0.26884  0.55258  1.0000
  N   N24       1.0  0.76828  0.25841  0.35790  1.0000
