data_image0
_chemical_formula_structural       C2H2C2H2C2H2C2H2C2H2C2H2CNCNCNC18H12CNCNCNC18H12C8H3NO2C8H3NO2C8H3NO2
_chemical_formula_sum              "C78 H45 N9 O6"
_cell_length_a       37.0141
_cell_length_b       37.0141
_cell_length_c       14.9233
_cell_angle_alpha    90
_cell_angle_beta     90
_cell_angle_gamma    120

_space_group_name_H-M_alt    "P 1"
_space_group_IT_number       1

loop_
  _space_group_symop_operation_xyz
  'x, y, z'

loop_
  _atom_site_type_symbol
  _atom_site_label
  _atom_site_symmetry_multiplicity
  _atom_site_fract_x
  _atom_site_fract_y
  _atom_site_fract_z
  _atom_site_occupancy
  C   C1        1.0  0.47103  0.51547  0.26370  1.0000
  C   C2        1.0  0.44898  0.53729  0.26464  1.0000
  H   H1        1.0  0.47179  0.50124  0.20548  1.0000
  H   H2        1.0  0.43504  0.53892  0.20670  1.0000
  C   C3        1.0  0.56452  0.47487  0.27191  1.0000
  C   C4        1.0  0.54215  0.49641  0.27203  1.0000
  H   H3        1.0  0.58488  0.48020  0.22047  1.0000
  H   H4        1.0  0.54775  0.51744  0.22188  1.0000
  C   C5        1.0  0.49096  0.95685  0.26368  1.0000
  C   C6        1.0  0.46913  0.91298  0.26462  1.0000
  H   H5        1.0  0.50519  0.97183  0.20547  1.0000
  H   H6        1.0  0.46751  0.89740  0.20669  1.0000
  C   C7        1.0  0.53158  0.09094  0.27189  1.0000
  C   C8        1.0  0.51002  0.04703  0.27202  1.0000
  H   H7        1.0  0.52623  0.10597  0.22048  1.0000
  H   H8        1.0  0.48899  0.03160  0.22188  1.0000
  C   C9        1.0  0.04958  0.53540  0.26370  1.0000
  C   C10       1.0  0.09345  0.55744  0.26462  1.0000
  H   H9        1.0  0.03459  0.53464  0.20549  1.0000
  H   H10       1.0  0.10902  0.57139  0.20669  1.0000
  C   C11       1.0  0.91549  0.44192  0.27192  1.0000
  C   C12       1.0  0.95940  0.46427  0.27207  1.0000
  H   H11       1.0  0.90046  0.42154  0.22050  1.0000
  H   H12       1.0  0.97483  0.45868  0.22188  1.0000
  C   C13       1.0  0.35895  0.71233  0.33804  1.0000
  N   N1        1.0  0.37898  0.68992  0.33809  1.0000
  C   C14       1.0  0.35852  0.64748  0.33804  1.0000
  N   N2        1.0  0.31609  0.62746  0.33809  1.0000
  C   C15       1.0  0.29410  0.64791  0.33803  1.0000
  N   N3        1.0  0.31651  0.69034  0.33808  1.0000
  C   C16       1.0  0.38057  0.62497  0.33859  1.0000
  C   C17       1.0  0.42427  0.64555  0.35305  1.0000
  C   C18       1.0  0.44598  0.62335  0.35478  1.0000
  C   C19       1.0  0.42478  0.57976  0.34118  1.0000
  C   C20       1.0  0.38134  0.55899  0.32562  1.0000
  C   C21       1.0  0.35962  0.58120  0.32502  1.0000
  C   C22       1.0  0.38146  0.75689  0.33858  1.0000
  C   C23       1.0  0.42523  0.77971  0.32500  1.0000
  C   C24       1.0  0.44743  0.82364  0.32557  1.0000
  C   C25       1.0  0.42666  0.84630  0.34116  1.0000
  C   C26       1.0  0.38307  0.82391  0.35478  1.0000
  C   C27       1.0  0.36088  0.78001  0.35305  1.0000
  C   C28       1.0  0.24954  0.62586  0.33857  1.0000
  C   C29       1.0  0.22672  0.64680  0.32497  1.0000
  C   C30       1.0  0.18279  0.62508  0.32556  1.0000
  C   C31       1.0  0.16013  0.58165  0.34115  1.0000
  C   C32       1.0  0.18252  0.56045  0.35478  1.0000
  C   C33       1.0  0.22642  0.58216  0.35302  1.0000
  H   H13       1.0  0.47905  0.83896  0.31592  1.0000
  H   H14       1.0  0.44162  0.76462  0.31385  1.0000
  H   H15       1.0  0.36706  0.83944  0.36550  1.0000
  H   H16       1.0  0.32936  0.76515  0.36355  1.0000
  H   H17       1.0  0.24181  0.67829  0.31385  1.0000
  H   H18       1.0  0.16747  0.64137  0.31590  1.0000
  H   H19       1.0  0.24128  0.56550  0.36356  1.0000
  H   H20       1.0  0.16699  0.52890  0.36550  1.0000
  H   H21       1.0  0.32814  0.56481  0.31389  1.0000
  H   H22       1.0  0.36505  0.52738  0.31596  1.0000
  H   H23       1.0  0.47753  0.63937  0.36548  1.0000
  H   H24       1.0  0.44093  0.67707  0.36353  1.0000
  C   C34       1.0  0.64921  0.29282  0.33896  1.0000
  N   N4        1.0  0.62874  0.31480  0.33897  1.0000
  C   C35       1.0  0.64876  0.35723  0.33896  1.0000
  N   N5        1.0  0.69120  0.37769  0.33898  1.0000
  C   C36       1.0  0.71361  0.35767  0.33898  1.0000
  N   N6        1.0  0.69163  0.31523  0.33898  1.0000
  C   C37       1.0  0.62626  0.37927  0.33908  1.0000
  C   C38       1.0  0.58254  0.35831  0.35314  1.0000
  C   C39       1.0  0.56039  0.38007  0.35394  1.0000
  C   C40       1.0  0.58095  0.42367  0.33960  1.0000
  C   C41       1.0  0.62454  0.44469  0.32493  1.0000
  C   C42       1.0  0.64675  0.42298  0.32522  1.0000
  C   C43       1.0  0.62716  0.24827  0.33909  1.0000
  C   C44       1.0  0.58345  0.22505  0.32522  1.0000
  C   C45       1.0  0.56174  0.18114  0.32494  1.0000
  C   C46       1.0  0.58276  0.15857  0.33961  1.0000
  C   C47       1.0  0.62636  0.18161  0.35396  1.0000
  C   C48       1.0  0.64812  0.22552  0.35316  1.0000
  C   C49       1.0  0.75816  0.38018  0.33912  1.0000
  C   C50       1.0  0.78138  0.35968  0.32526  1.0000
  C   C51       1.0  0.82529  0.38189  0.32498  1.0000
  C   C52       1.0  0.84786  0.42548  0.33964  1.0000
  C   C53       1.0  0.82482  0.44603  0.35403  1.0000
  C   C54       1.0  0.78091  0.42389  0.35319  1.0000
  H   H25       1.0  0.53011  0.16574  0.31550  1.0000
  H   H26       1.0  0.56673  0.23985  0.31452  1.0000
  H   H27       1.0  0.64291  0.16656  0.36363  1.0000
  H   H28       1.0  0.67965  0.24067  0.36377  1.0000
  H   H29       1.0  0.76658  0.32817  0.31454  1.0000
  H   H30       1.0  0.84069  0.36566  0.31552  1.0000
  H   H31       1.0  0.76577  0.44027  0.36378  1.0000
  H   H32       1.0  0.83987  0.47764  0.36363  1.0000
  H   H33       1.0  0.67826  0.43970  0.31452  1.0000
  H   H34       1.0  0.64077  0.47632  0.31552  1.0000
  H   H35       1.0  0.52879  0.36352  0.36362  1.0000
  H   H36       1.0  0.56616  0.32678  0.36375  1.0000
  C   C55       1.0  0.44670  0.55730  0.34334  1.0000
  C   C56       1.0  0.46653  0.55457  0.42243  1.0000
  C   C57       1.0  0.48817  0.53201  0.42061  1.0000
  C   C58       1.0  0.49098  0.51235  0.34170  1.0000
  C   C59       1.0  0.51329  0.49007  0.34095  1.0000
  C   C60       1.0  0.50740  0.46113  0.40934  1.0000
  C   C61       1.0  0.52936  0.43917  0.40856  1.0000
  C   C62       1.0  0.55844  0.44573  0.34000  1.0000
  H   H37       1.0  0.48651  0.45526  0.45995  1.0000
  H   H38       1.0  0.52439  0.41878  0.45973  1.0000
  H   H39       1.0  0.50265  0.53062  0.47788  1.0000
  N   N7        1.0  0.46356  0.57356  0.50238  1.0000
  O   O1        1.0  0.49895  0.60052  0.53039  1.0000
  O   O2        1.0  0.44525  0.54705  0.56314  1.0000
  C   C63       1.0  0.44912  0.89068  0.34332  1.0000
  C   C64       1.0  0.45185  0.91324  0.42241  1.0000
  C   C65       1.0  0.47441  0.95745  0.42059  1.0000
  C   C66       1.0  0.49408  0.97992  0.34169  1.0000
  C   C67       1.0  0.51636  0.02450  0.34093  1.0000
  C   C68       1.0  0.54529  0.04756  0.40934  1.0000
  C   C69       1.0  0.56724  0.09147  0.40858  1.0000
  C   C70       1.0  0.56070  0.11400  0.34000  1.0000
  H   H40       1.0  0.55117  0.03253  0.45993  1.0000
  H   H41       1.0  0.58765  0.10688  0.45972  1.0000
  H   H42       1.0  0.47580  0.97332  0.47786  1.0000
  N   N8        1.0  0.43287  0.89129  0.50236  1.0000
  O   O3        1.0  0.40590  0.89971  0.53037  1.0000
  O   O4        1.0  0.45938  0.89950  0.56312  1.0000
  C   C71       1.0  0.11575  0.55973  0.34332  1.0000
  C   C72       1.0  0.09319  0.53989  0.42242  1.0000
  C   C73       1.0  0.04898  0.51825  0.42060  1.0000
  C   C74       1.0  0.02651  0.51544  0.34171  1.0000
  C   C75       1.0  0.98193  0.49314  0.34096  1.0000
  C   C76       1.0  0.95888  0.49901  0.40938  1.0000
  C   C77       1.0  0.91497  0.47707  0.40859  1.0000
  C   C78       1.0  0.89243  0.44799  0.34003  1.0000
  H   H43       1.0  0.97391  0.51993  0.45994  1.0000
  H   H44       1.0  0.89955  0.48205  0.45976  1.0000
  H   H45       1.0  0.03312  0.50377  0.47788  1.0000
  N   N9        1.0  0.11515  0.54287  0.50237  1.0000
  O   O5        1.0  0.10673  0.50749  0.53038  1.0000
  O   O6        1.0  0.10694  0.56118  0.56313  1.0000
