data_image0
_chemical_formula_structural       C8HC7HCH3C2H2C3H2C2H2NC3H2C2H2NC3H2C2H2NC3H2C2H2NC3H2C2H2NC3H2C2H2NHC2H2C8HC7HCH4C4H4C8HC7HCH4C4H4C7H2N2O4NC7H2N2O4NC7H2N2O4NC7H2N2O4NC7H2N2O4NC7H2N2O4N
_chemical_formula_sum              "C132 H66 N24 O24"
_cell_length_a       40.2715
_cell_length_b       40.2714
_cell_length_c       14.9994
_cell_angle_alpha    89.9998
_cell_angle_beta     90.0002
_cell_angle_gamma    120

_space_group_name_H-M_alt    "P 1"
_space_group_IT_number       1

loop_
  _space_group_symop_operation_xyz
  'x, y, z'

loop_
  _atom_site_type_symbol
  _atom_site_label
  _atom_site_symmetry_multiplicity
  _atom_site_fract_x
  _atom_site_fract_y
  _atom_site_fract_z
  _atom_site_occupancy
  C   C1        1.0  0.02301  0.52143  0.35397  1.0000
  C   C2        1.0  0.04187  0.49937  0.35062  1.0000
  C   C3        1.0  0.08263  0.51814  0.34693  1.0000
  C   C4        1.0  0.10384  0.55851  0.35349  1.0000
  C   C5        1.0  0.08579  0.58065  0.36081  1.0000
  C   C6        1.0  0.04517  0.56226  0.35771  1.0000
  C   C7        1.0  0.01911  0.45894  0.35239  1.0000
  C   C8        1.0  0.02591  0.58350  0.35793  1.0000
  H   H1        1.0  0.13328  0.57226  0.35257  1.0000
  C   C9        1.0  0.98201  0.50272  0.35389  1.0000
  C   C10       1.0  0.95984  0.46188  0.35757  1.0000
  C   C11       1.0  0.91922  0.44348  0.36042  1.0000
  C   C12       1.0  0.90118  0.46563  0.35312  1.0000
  C   C13       1.0  0.92239  0.50601  0.34669  1.0000
  C   C14       1.0  0.96315  0.52477  0.35049  1.0000
  C   C15       1.0  0.97910  0.44065  0.35789  1.0000
  H   H2        1.0  0.87174  0.45190  0.35216  1.0000
  C   C16       1.0  0.98591  0.56520  0.35232  1.0000
  H   H3        1.0  0.96420  0.41132  0.35946  1.0000
  H   H4        1.0  0.03138  0.44201  0.35233  1.0000
  H   H5        1.0  0.04081  0.61282  0.35968  1.0000
  C   C17       1.0  0.10912  0.61931  0.37761  1.0000
  C   C18       1.0  0.89588  0.40484  0.37739  1.0000
  H   H6        1.0  0.11371  0.62773  0.44093  1.0000
  H   H7        1.0  0.89172  0.39634  0.44066  1.0000
  C   C19       1.0  0.33550  0.49875  0.31947  1.0000
  C   C20       1.0  0.28832  0.51708  0.27569  1.0000
  C   C21       1.0  0.32519  0.52174  0.26890  1.0000
  H   H8        1.0  0.28248  0.53564  0.24182  1.0000
  H   H9        1.0  0.34512  0.54354  0.23008  1.0000
  C   C22       1.0  0.16803  0.48527  0.28255  1.0000
  C   C23       1.0  0.20049  0.48108  0.27384  1.0000
  H   H10       1.0  0.15215  0.48244  0.22693  1.0000
  H   H11       1.0  0.20687  0.47470  0.21235  1.0000
  N   N1        1.0  0.37225  0.50843  0.31492  1.0000
  C   C24       1.0  0.51555  0.85814  0.31933  1.0000
  C   C25       1.0  0.49731  0.79265  0.27566  1.0000
  C   C26       1.0  0.49256  0.82479  0.26892  1.0000
  H   H12       1.0  0.47878  0.76822  0.24180  1.0000
  H   H13       1.0  0.47075  0.82289  0.23007  1.0000
  C   C27       1.0  0.52933  0.70432  0.28248  1.0000
  C   C28       1.0  0.53344  0.74093  0.27374  1.0000
  H   H14       1.0  0.53222  0.69129  0.22688  1.0000
  H   H15       1.0  0.53989  0.75373  0.21228  1.0000
  N   N2        1.0  0.50575  0.88512  0.31481  1.0000
  C   C29       1.0  0.15613  0.67905  0.31922  1.0000
  C   C30       1.0  0.22167  0.72621  0.27568  1.0000
  C   C31       1.0  0.18947  0.68935  0.26885  1.0000
  H   H16       1.0  0.24608  0.73207  0.24178  1.0000
  H   H17       1.0  0.19131  0.66943  0.22990  1.0000
  C   C32       1.0  0.31011  0.84651  0.28250  1.0000
  C   C33       1.0  0.27348  0.81403  0.27382  1.0000
  H   H18       1.0  0.32312  0.86243  0.22690  1.0000
  H   H19       1.0  0.26066  0.80767  0.21239  1.0000
  N   N3        1.0  0.12907  0.64229  0.31469  1.0000
  C   C34       1.0  0.66938  0.52512  0.31915  1.0000
  C   C35       1.0  0.71660  0.50681  0.27564  1.0000
  C   C36       1.0  0.67972  0.50210  0.26879  1.0000
  H   H20       1.0  0.72247  0.48824  0.24183  1.0000
  H   H21       1.0  0.65980  0.48026  0.23003  1.0000
  C   C37       1.0  0.83696  0.53883  0.28241  1.0000
  C   C38       1.0  0.80442  0.54288  0.27367  1.0000
  H   H22       1.0  0.85281  0.54162  0.22675  1.0000
  H   H23       1.0  0.79806  0.54930  0.21220  1.0000
  N   N4        1.0  0.63260  0.51533  0.31465  1.0000
  C   C39       1.0  0.48940  0.16582  0.31945  1.0000
  C   C40       1.0  0.50766  0.23131  0.27575  1.0000
  C   C41       1.0  0.51240  0.19915  0.26901  1.0000
  H   H24       1.0  0.52624  0.25576  0.24198  1.0000
  H   H25       1.0  0.53425  0.20108  0.23030  1.0000
  C   C42       1.0  0.47563  0.31964  0.28243  1.0000
  C   C43       1.0  0.47153  0.28303  0.27372  1.0000
  H   H26       1.0  0.47279  0.33269  0.22682  1.0000
  H   H27       1.0  0.46515  0.27026  0.21224  1.0000
  N   N5        1.0  0.49917  0.13881  0.31495  1.0000
  C   C44       1.0  0.84862  0.34507  0.31937  1.0000
  C   C45       1.0  0.78311  0.29784  0.27579  1.0000
  C   C46       1.0  0.81526  0.33473  0.26904  1.0000
  H   H28       1.0  0.75868  0.29195  0.24196  1.0000
  H   H29       1.0  0.81336  0.35465  0.23020  1.0000
  C   C47       1.0  0.69483  0.17745  0.28245  1.0000
  C   C48       1.0  0.73142  0.20998  0.27374  1.0000
  H   H30       1.0  0.68181  0.16154  0.22685  1.0000
  H   H31       1.0  0.74422  0.21636  0.21228  1.0000
  N   N6        1.0  0.87563  0.38185  0.31478  1.0000
  H   H32       1.0  0.97364  0.58214  0.35228  1.0000
  C   C49       1.0  0.90232  0.52516  0.32977  1.0000
  C   C50       1.0  0.10272  0.49902  0.32992  1.0000
  H   H33       1.0  0.91038  0.54312  0.27839  1.0000
  H   H34       1.0  0.09459  0.48098  0.27869  1.0000
  C   C51       1.0  0.49308  0.52311  0.35397  1.0000
  C   C52       1.0  0.51515  0.56402  0.35062  1.0000
  C   C53       1.0  0.49641  0.58604  0.34703  1.0000
  C   C54       1.0  0.45604  0.56691  0.35360  1.0000
  C   C55       1.0  0.43388  0.52672  0.36093  1.0000
  C   C56       1.0  0.45224  0.50447  0.35778  1.0000
  C   C57       1.0  0.55558  0.58167  0.35231  1.0000
  C   C58       1.0  0.43098  0.46397  0.35801  1.0000
  H   H35       1.0  0.44232  0.58263  0.35273  1.0000
  C   C59       1.0  0.51175  0.50080  0.35388  1.0000
  C   C60       1.0  0.55259  0.51944  0.35753  1.0000
  C   C61       1.0  0.57096  0.49719  0.36046  1.0000
  C   C62       1.0  0.54879  0.45701  0.35317  1.0000
  C   C63       1.0  0.50842  0.43788  0.34671  1.0000
  C   C64       1.0  0.48967  0.45988  0.35050  1.0000
  C   C65       1.0  0.57385  0.55994  0.35779  1.0000
  H   H36       1.0  0.56251  0.44128  0.35223  1.0000
  C   C66       1.0  0.44925  0.44224  0.35231  1.0000
  H   H37       1.0  0.60318  0.57434  0.35949  1.0000
  H   H38       1.0  0.57253  0.61087  0.35237  1.0000
  H   H39       1.0  0.43230  0.41304  0.35237  1.0000
  H   H40       1.0  0.40165  0.44956  0.35980  1.0000
  C   C67       1.0  0.39523  0.51142  0.37782  1.0000
  C   C68       1.0  0.48924  0.39864  0.32984  1.0000
  C   C69       1.0  0.60961  0.51248  0.37736  1.0000
  C   C70       1.0  0.51555  0.62525  0.32993  1.0000
  H   H41       1.0  0.38678  0.50756  0.44111  1.0000
  H   H42       1.0  0.47132  0.38876  0.27838  1.0000
  H   H43       1.0  0.61812  0.51673  0.44063  1.0000
  H   H44       1.0  0.53356  0.63514  0.27863  1.0000
  C   C71       1.0  0.49130  0.99148  0.35398  1.0000
  C   C72       1.0  0.45039  0.97267  0.35059  1.0000
  C   C73       1.0  0.42836  0.93192  0.34681  1.0000
  C   C74       1.0  0.44747  0.91066  0.35331  1.0000
  C   C75       1.0  0.48765  0.92866  0.36069  1.0000
  C   C76       1.0  0.50992  0.96927  0.35769  1.0000
  C   C77       1.0  0.43277  0.99548  0.35238  1.0000
  C   C78       1.0  0.55042  0.98849  0.35795  1.0000
  H   H45       1.0  0.43173  0.88122  0.35236  1.0000
  C   C79       1.0  0.51364  0.03248  0.35401  1.0000
  C   C80       1.0  0.49502  0.05469  0.35778  1.0000
  C   C81       1.0  0.51729  0.09531  0.36084  1.0000
  C   C82       1.0  0.55747  0.11330  0.35345  1.0000
  C   C83       1.0  0.57658  0.09204  0.34687  1.0000
  C   C84       1.0  0.55455  0.05129  0.35060  1.0000
  C   C85       1.0  0.45452  0.03547  0.35806  1.0000
  H   H46       1.0  0.57321  0.14274  0.35253  1.0000
  C   C86       1.0  0.57217  0.02849  0.35232  1.0000
  H   H47       1.0  0.44013  0.05041  0.35975  1.0000
  H   H48       1.0  0.40357  0.98325  0.35239  1.0000
  H   H49       1.0  0.60137  0.04072  0.35236  1.0000
  H   H50       1.0  0.56481  0.97355  0.35964  1.0000
  C   C87       1.0  0.50291  0.90527  0.37752  1.0000
  C   C88       1.0  0.61580  0.11207  0.32991  1.0000
  C   C89       1.0  0.50202  0.11868  0.37770  1.0000
  C   C90       1.0  0.38913  0.91189  0.32992  1.0000
  H   H51       1.0  0.50725  0.90109  0.44078  1.0000
  H   H52       1.0  0.62568  0.10402  0.27849  1.0000
  H   H53       1.0  0.49779  0.12297  0.44096  1.0000
  H   H54       1.0  0.37925  0.91992  0.27843  1.0000
  C   C91       1.0  0.30743  0.46903  0.37376  1.0000
  C   C92       1.0  0.27032  0.46466  0.38002  1.0000
  C   C93       1.0  0.26065  0.48896  0.33269  1.0000
  C   C94       1.0  0.22520  0.48783  0.34703  1.0000
  C   C95       1.0  0.21646  0.49825  0.43062  1.0000
  C   C96       1.0  0.18365  0.50240  0.43822  1.0000
  C   C97       1.0  0.15940  0.49631  0.36482  1.0000
  H   H55       1.0  0.17851  0.51178  0.49732  1.0000
  H   H56       1.0  0.25045  0.44398  0.42117  1.0000
  N   N7        1.0  0.24185  0.50679  0.50353  1.0000
  N   N8        1.0  0.31695  0.44449  0.42081  1.0000
  O   O1        1.0  0.22527  0.48526  0.56886  1.0000
  O   O2        1.0  0.29642  0.41024  0.39658  1.0000
  O   O3        1.0  0.25607  0.54107  0.52813  1.0000
  O   O4        1.0  0.31317  0.44639  0.50353  1.0000
  N   N9        1.0  0.13334  0.50711  0.37350  1.0000
  C   C98       1.0  0.54535  0.85988  0.37348  1.0000
  C   C99       1.0  0.54979  0.82718  0.37977  1.0000
  C   C100      1.0  0.52550  0.79317  0.33256  1.0000
  C   C101      1.0  0.52672  0.75891  0.34693  1.0000
  C   C102      1.0  0.51629  0.73974  0.43052  1.0000
  C   C103      1.0  0.51216  0.70278  0.43812  1.0000
  C   C104      1.0  0.51834  0.68467  0.36477  1.0000
  H   H57       1.0  0.50280  0.68829  0.49725  1.0000
  H   H58       1.0  0.57054  0.82806  0.42082  1.0000
  N   N10       1.0  0.50772  0.75658  0.50340  1.0000
  N   N11       1.0  0.56991  0.89399  0.42036  1.0000
  O   O5        1.0  0.52924  0.76154  0.56876  1.0000
  O   O6        1.0  0.60414  0.90774  0.39592  1.0000
  O   O7        1.0  0.47343  0.73650  0.52794  1.0000
  O   O8        1.0  0.56812  0.88837  0.50310  1.0000
  N   N12       1.0  0.50751  0.64780  0.37353  1.0000
  C   C105      1.0  0.15449  0.70710  0.37361  1.0000
  C   C106      1.0  0.18723  0.74420  0.37998  1.0000
  C   C107      1.0  0.22121  0.75387  0.33268  1.0000
  C   C108      1.0  0.25552  0.78933  0.34705  1.0000
  C   C109      1.0  0.27470  0.79807  0.43061  1.0000
  C   C110      1.0  0.31167  0.83087  0.43816  1.0000
  C   C111      1.0  0.32979  0.85511  0.36475  1.0000
  H   H59       1.0  0.32617  0.83605  0.49730  1.0000
  H   H60       1.0  0.18641  0.76406  0.42113  1.0000
  N   N13       1.0  0.25784  0.77270  0.50353  1.0000
  N   N14       1.0  0.12040  0.69756  0.42061  1.0000
  O   O9        1.0  0.25291  0.78929  0.56886  1.0000
  O   O10       1.0  0.10671  0.71812  0.39642  1.0000
  O   O11       1.0  0.27789  0.75846  0.52812  1.0000
  O   O12       1.0  0.12605  0.70130  0.50335  1.0000
  N   N15       1.0  0.36663  0.88125  0.37347  1.0000
  C   C112      1.0  0.69743  0.55487  0.37340  1.0000
  C   C113      1.0  0.73456  0.55929  0.37975  1.0000
  C   C114      1.0  0.74427  0.53499  0.33251  1.0000
  C   C115      1.0  0.77974  0.53618  0.34690  1.0000
  C   C116      1.0  0.78851  0.52578  0.43048  1.0000
  C   C117      1.0  0.82131  0.52163  0.43804  1.0000
  C   C118      1.0  0.84558  0.52777  0.36466  1.0000
  H   H61       1.0  0.82650  0.51232  0.49718  1.0000
  H   H62       1.0  0.75443  0.58002  0.42079  1.0000
  N   N16       1.0  0.76313  0.51727  0.50341  1.0000
  N   N17       1.0  0.68789  0.57944  0.42030  1.0000
  O   O13       1.0  0.77973  0.53881  0.56872  1.0000
  O   O14       1.0  0.70841  0.61368  0.39593  1.0000
  O   O15       1.0  0.74892  0.48299  0.52806  1.0000
  O   O16       1.0  0.69169  0.57762  0.50304  1.0000
  N   N18       1.0  0.87169  0.51702  0.37336  1.0000
  C   C119      1.0  0.45960  0.16409  0.37357  1.0000
  C   C120      1.0  0.45516  0.19679  0.37980  1.0000
  C   C121      1.0  0.47947  0.23080  0.33260  1.0000
  C   C122      1.0  0.47827  0.26508  0.34693  1.0000
  C   C123      1.0  0.48864  0.28423  0.43054  1.0000
  C   C124      1.0  0.49273  0.32116  0.43814  1.0000
  C   C125      1.0  0.48663  0.33930  0.36472  1.0000
  H   H63       1.0  0.50207  0.33567  0.49725  1.0000
  H   H64       1.0  0.43442  0.19592  0.42084  1.0000
  N   N19       1.0  0.49718  0.26738  0.50347  1.0000
  N   N20       1.0  0.43504  0.12999  0.42048  1.0000
  O   O17       1.0  0.47562  0.26239  0.56876  1.0000
  O   O18       1.0  0.40081  0.11624  0.39602  1.0000
  O   O19       1.0  0.53145  0.28747  0.52814  1.0000
  O   O20       1.0  0.43683  0.13562  0.50321  1.0000
  N   N21       1.0  0.49736  0.37615  0.37344  1.0000
  C   C126      1.0  0.85036  0.31700  0.37348  1.0000
  C   C127      1.0  0.81766  0.27987  0.37979  1.0000
  C   C128      1.0  0.78364  0.27017  0.33263  1.0000
  C   C129      1.0  0.74939  0.23467  0.34695  1.0000
  C   C130      1.0  0.73022  0.22589  0.43055  1.0000
  C   C131      1.0  0.69329  0.19304  0.43814  1.0000
  C   C132      1.0  0.67519  0.16876  0.36476  1.0000
  H   H65       1.0  0.67879  0.18786  0.49727  1.0000
  H   H66       1.0  0.81855  0.25999  0.42078  1.0000
  N   N22       1.0  0.74705  0.25128  0.50347  1.0000
  N   N23       1.0  0.88449  0.32654  0.42028  1.0000
  O   O21       1.0  0.75204  0.23472  0.56878  1.0000
  O   O22       1.0  0.89822  0.30604  0.39576  1.0000
  O   O23       1.0  0.72695  0.26545  0.52809  1.0000
  O   O24       1.0  0.87890  0.32270  0.50303  1.0000
  N   N24       1.0  0.63833  0.14269  0.37352  1.0000
