data_image0
_chemical_formula_structural       C8H7CHC8H7CHC8H7CHC8H7CHC8H7CHC8H7CHC3NC2NHCHNC3NC2NHCHNC3NC2NHCHNC3H4NC3H4NC3H4NC3H4NC3H4NC3H4NC10H6C6H2C2H2C10H6C6H2C2H2C10H6C6H2C2H2C10H6C6H2C2H2C10H6C6H2C2H2C10H6C6H2C2H2C3H4NC3H4NC3H4NC3NC2NHCHNC3NC2NHCHNC3NC2NHCHNC3NC2NHCHNC3NC2NHCHNC3NC2NHCHN
_chemical_formula_sum              "C243 H162 N36"
_cell_length_a       78.444
_cell_length_b       78.444
_cell_length_c       14.8733
_cell_angle_alpha    90
_cell_angle_beta     90
_cell_angle_gamma    120

_space_group_name_H-M_alt    "P 1"
_space_group_IT_number       1

loop_
  _space_group_symop_operation_xyz
  'x, y, z'

loop_
  _atom_site_type_symbol
  _atom_site_label
  _atom_site_symmetry_multiplicity
  _atom_site_fract_x
  _atom_site_fract_y
  _atom_site_fract_z
  _atom_site_occupancy
  C   C1        1.0  0.12319  0.56008  0.33025  1.0000
  C   C2        1.0  0.20181  0.63460  0.26745  1.0000
  C   C3        1.0  0.21502  0.65497  0.27346  1.0000
  C   C4        1.0  0.08086  0.53638  0.31383  1.0000
  C   C5        1.0  0.09360  0.53119  0.26946  1.0000
  C   C6        1.0  0.11421  0.54271  0.27762  1.0000
  C   C7        1.0  0.19591  0.55921  0.29444  1.0000
  C   C8        1.0  0.21196  0.55603  0.30547  1.0000
  H   H1        1.0  0.22671  0.66112  0.23004  1.0000
  H   H2        1.0  0.12266  0.53841  0.24266  1.0000
  H   H3        1.0  0.08798  0.51887  0.22985  1.0000
  H   H4        1.0  0.19059  0.55871  0.23101  1.0000
  H   H5        1.0  0.21758  0.55297  0.24960  1.0000
  H   H6        1.0  0.14650  0.59963  0.32191  1.0000
  H   H7        1.0  0.20447  0.62665  0.22053  1.0000
  C   C9        1.0  0.06047  0.52468  0.30160  1.0000
  H   H8        1.0  0.05575  0.51469  0.25264  1.0000
  C   C10       1.0  0.45055  0.56523  0.33019  1.0000
  C   C11       1.0  0.37605  0.56936  0.26747  1.0000
  C   C12       1.0  0.35569  0.56222  0.27353  1.0000
  C   C13       1.0  0.47425  0.54660  0.31376  1.0000
  C   C14       1.0  0.47942  0.56451  0.26928  1.0000
  C   C15       1.0  0.46791  0.57360  0.27744  1.0000
  C   C16       1.0  0.45142  0.63884  0.29415  1.0000
  C   C17       1.0  0.45465  0.65810  0.30525  1.0000
  H   H9        1.0  0.34953  0.56775  0.23013  1.0000
  H   H10       1.0  0.47220  0.58635  0.24240  1.0000
  H   H11       1.0  0.49174  0.57121  0.22960  1.0000
  H   H12       1.0  0.45196  0.63405  0.23074  1.0000
  H   H13       1.0  0.45768  0.66677  0.24939  1.0000
  H   H14       1.0  0.41101  0.54900  0.32201  1.0000
  H   H15       1.0  0.38400  0.57997  0.22060  1.0000
  C   C18       1.0  0.48596  0.53792  0.30161  1.0000
  H   H16       1.0  0.49597  0.54320  0.25272  1.0000
  C   C19       1.0  0.44541  0.88747  0.33023  1.0000
  C   C20       1.0  0.44133  0.80886  0.26733  1.0000
  C   C21       1.0  0.44844  0.79562  0.27350  1.0000
  C   C22       1.0  0.46404  0.92980  0.31385  1.0000
  C   C23       1.0  0.44612  0.91705  0.26942  1.0000
  C   C24       1.0  0.43702  0.89645  0.27759  1.0000
  C   C25       1.0  0.37179  0.81474  0.29419  1.0000
  C   C26       1.0  0.35255  0.79869  0.30532  1.0000
  H   H17       1.0  0.44292  0.78394  0.23004  1.0000
  H   H18       1.0  0.42428  0.88800  0.24254  1.0000
  H   H19       1.0  0.43942  0.92268  0.22976  1.0000
  H   H20       1.0  0.37657  0.82010  0.23081  1.0000
  H   H21       1.0  0.34383  0.79311  0.24956  1.0000
  H   H22       1.0  0.46165  0.86416  0.32197  1.0000
  H   H23       1.0  0.43072  0.80620  0.22044  1.0000
  C   C27       1.0  0.47274  0.95018  0.30163  1.0000
  H   H24       1.0  0.46746  0.95491  0.25269  1.0000
  C   C28       1.0  0.88956  0.44861  0.32899  1.0000
  C   C29       1.0  0.81115  0.37388  0.26449  1.0000
  C   C30       1.0  0.79793  0.35352  0.27063  1.0000
  C   C31       1.0  0.93193  0.47294  0.31696  1.0000
  C   C32       1.0  0.91918  0.47808  0.27231  1.0000
  C   C33       1.0  0.89856  0.46625  0.27817  1.0000
  C   C34       1.0  0.81684  0.44935  0.29304  1.0000
  C   C35       1.0  0.80079  0.45255  0.30413  1.0000
  H   H25       1.0  0.78627  0.34734  0.22705  1.0000
  H   H26       1.0  0.89013  0.47061  0.24346  1.0000
  H   H27       1.0  0.92479  0.49067  0.23454  1.0000
  H   H28       1.0  0.82228  0.45006  0.22972  1.0000
  H   H29       1.0  0.79529  0.45580  0.24842  1.0000
  H   H30       1.0  0.86638  0.40903  0.31947  1.0000
  H   H31       1.0  0.80851  0.38181  0.21736  1.0000
  C   C36       1.0  0.95236  0.48540  0.30971  1.0000
  H   H32       1.0  0.95718  0.49789  0.27547  1.0000
  C   C37       1.0  0.56205  0.44311  0.32898  1.0000
  C   C38       1.0  0.63675  0.43935  0.26465  1.0000
  C   C39       1.0  0.65711  0.44649  0.27079  1.0000
  C   C40       1.0  0.53773  0.46115  0.31695  1.0000
  C   C41       1.0  0.53261  0.44327  0.27215  1.0000
  C   C42       1.0  0.54444  0.43450  0.27802  1.0000
  C   C43       1.0  0.56134  0.36961  0.29265  1.0000
  C   C44       1.0  0.55813  0.35037  0.30375  1.0000
  H   H33       1.0  0.66329  0.44101  0.22721  1.0000
  H   H34       1.0  0.54009  0.42171  0.24322  1.0000
  H   H35       1.0  0.52004  0.43632  0.23428  1.0000
  H   H36       1.0  0.56066  0.37436  0.22933  1.0000
  H   H37       1.0  0.55494  0.34164  0.24800  1.0000
  H   H38       1.0  0.60164  0.45948  0.31967  1.0000
  H   H39       1.0  0.62881  0.42878  0.21759  1.0000
  C   C45       1.0  0.52527  0.46912  0.30973  1.0000
  H   H40       1.0  0.51278  0.46144  0.27552  1.0000
  C   C46       1.0  0.56757  0.12108  0.32899  1.0000
  C   C47       1.0  0.57125  0.19948  0.26448  1.0000
  C   C48       1.0  0.56414  0.21273  0.27070  1.0000
  C   C49       1.0  0.54953  0.07871  0.31698  1.0000
  C   C50       1.0  0.56742  0.09147  0.27229  1.0000
  C   C51       1.0  0.57619  0.11208  0.27814  1.0000
  C   C52       1.0  0.64102  0.19386  0.29290  1.0000
  C   C53       1.0  0.66027  0.20989  0.30398  1.0000
  H   H41       1.0  0.56962  0.22438  0.22710  1.0000
  H   H42       1.0  0.58899  0.12051  0.24342  1.0000
  H   H43       1.0  0.57439  0.08585  0.23451  1.0000
  H   H44       1.0  0.63628  0.18841  0.22960  1.0000
  H   H45       1.0  0.66901  0.21540  0.24822  1.0000
  H   H46       1.0  0.55117  0.14427  0.31956  1.0000
  H   H47       1.0  0.58182  0.20212  0.21742  1.0000
  C   C54       1.0  0.54156  0.05828  0.30976  1.0000
  H   H48       1.0  0.54922  0.05346  0.27555  1.0000
  C   C55       1.0  0.98519  0.49293  0.34161  1.0000
  C   C56       1.0  0.99605  0.50107  0.26137  1.0000
  C   C57       1.0  0.01703  0.51224  0.26296  1.0000
  N   N1        1.0  0.02656  0.51997  0.18412  1.0000
  C   C58       1.0  0.01735  0.51744  0.10385  1.0000
  C   C59       1.0  0.99666  0.50601  0.10233  1.0000
  N   N2        1.0  0.98691  0.49839  0.18055  1.0000
  H   H49       1.0  0.98892  0.50346  0.04381  1.0000
  C   C60       1.0  0.02897  0.52606  0.02160  1.0000
  H   H50       1.0  0.04467  0.53471  0.03670  1.0000
  N   N3        1.0  0.96545  0.48210  0.34520  1.0000
  C   C61       1.0  0.51773  0.49441  0.34163  1.0000
  C   C62       1.0  0.50959  0.49713  0.26138  1.0000
  C   C63       1.0  0.49842  0.50692  0.26296  1.0000
  N   N4        1.0  0.49070  0.50873  0.18411  1.0000
  C   C64       1.0  0.49323  0.50206  0.10385  1.0000
  C   C65       1.0  0.50467  0.49281  0.10233  1.0000
  N   N5        1.0  0.51228  0.49068  0.18056  1.0000
  H   H51       1.0  0.50723  0.48763  0.04381  1.0000
  C   C66       1.0  0.48462  0.50506  0.02158  1.0000
  H   H52       1.0  0.47596  0.51210  0.03668  1.0000
  N   N6        1.0  0.52857  0.48551  0.34522  1.0000
  C   C67       1.0  0.51624  0.02546  0.34163  1.0000
  C   C68       1.0  0.51354  0.01460  0.26140  1.0000
  C   C69       1.0  0.50374  0.99363  0.26299  1.0000
  N   N7        1.0  0.50194  0.98410  0.18416  1.0000
  C   C70       1.0  0.50862  0.99330  0.10389  1.0000
  C   C71       1.0  0.51787  0.01399  0.10235  1.0000
  N   N8        1.0  0.51999  0.02374  0.18058  1.0000
  H   H53       1.0  0.52306  0.02173  0.04384  1.0000
  C   C72       1.0  0.50562  0.98168  0.02163  1.0000
  H   H54       1.0  0.49858  0.96598  0.03674  1.0000
  N   N9        1.0  0.52516  0.04520  0.34522  1.0000
  C   C73       1.0  0.26222  0.55031  0.34465  1.0000
  C   C74       1.0  0.27240  0.55393  0.26237  1.0000
  C   C75       1.0  0.29055  0.55439  0.25699  1.0000
  H   H55       1.0  0.29776  0.55762  0.19655  1.0000
  H   H56       1.0  0.26697  0.55699  0.20593  1.0000
  H   H57       1.0  0.26755  0.54811  0.04643  1.0000
  H   H58       1.0  0.25521  0.52230  0.02732  1.0000
  N   N10       1.0  0.24551  0.55099  0.34401  1.0000
  C   C76       1.0  0.46035  0.71406  0.34461  1.0000
  C   C77       1.0  0.45674  0.72062  0.26232  1.0000
  C   C78       1.0  0.45628  0.73831  0.25692  1.0000
  H   H59       1.0  0.45307  0.74230  0.19645  1.0000
  H   H60       1.0  0.45372  0.71214  0.20585  1.0000
  H   H61       1.0  0.46240  0.72150  0.04636  1.0000
  H   H62       1.0  0.48822  0.73501  0.02752  1.0000
  N   N11       1.0  0.45969  0.69668  0.34397  1.0000
  C   C79       1.0  0.29659  0.74844  0.34461  1.0000
  C   C80       1.0  0.29002  0.73826  0.26232  1.0000
  C   C81       1.0  0.27233  0.72012  0.25690  1.0000
  H   H63       1.0  0.26835  0.71291  0.19645  1.0000
  H   H64       1.0  0.29852  0.74370  0.20588  1.0000
  H   H65       1.0  0.28908  0.74304  0.04637  1.0000
  H   H66       1.0  0.27560  0.75539  0.02742  1.0000
  N   N12       1.0  0.31398  0.76514  0.34398  1.0000
  C   C82       1.0  0.75045  0.45814  0.34281  1.0000
  C   C83       1.0  0.74028  0.45452  0.26050  1.0000
  C   C84       1.0  0.72216  0.45410  0.25500  1.0000
  H   H67       1.0  0.71496  0.45087  0.19453  1.0000
  H   H68       1.0  0.74571  0.45142  0.20412  1.0000
  H   H69       1.0  0.74506  0.46041  0.04458  1.0000
  H   H70       1.0  0.75747  0.48622  0.02532  1.0000
  N   N13       1.0  0.76713  0.45741  0.34230  1.0000
  C   C85       1.0  0.55253  0.29445  0.34269  1.0000
  C   C86       1.0  0.55609  0.28787  0.26033  1.0000
  C   C87       1.0  0.55653  0.27017  0.25486  1.0000
  H   H71       1.0  0.55972  0.26617  0.19436  1.0000
  H   H72       1.0  0.55915  0.29637  0.20392  1.0000
  H   H73       1.0  0.55045  0.28691  0.04443  1.0000
  H   H74       1.0  0.52462  0.27347  0.02554  1.0000
  N   N14       1.0  0.55323  0.31184  0.34214  1.0000
  C   C88       1.0  0.71622  0.26019  0.34276  1.0000
  C   C89       1.0  0.72278  0.27035  0.26042  1.0000
  C   C90       1.0  0.74049  0.28847  0.25490  1.0000
  H   H75       1.0  0.74447  0.29566  0.19442  1.0000
  H   H76       1.0  0.71426  0.26491  0.20403  1.0000
  H   H77       1.0  0.72384  0.26564  0.04450  1.0000
  H   H78       1.0  0.73725  0.25323  0.02544  1.0000
  N   N15       1.0  0.69881  0.24351  0.34224  1.0000
  C   C91       1.0  0.18585  0.62498  0.32809  1.0000
  C   C92       1.0  0.18856  0.56498  0.36805  1.0000
  C   C93       1.0  0.21286  0.66650  0.34082  1.0000
  C   C94       1.0  0.19636  0.65700  0.39879  1.0000
  C   C95       1.0  0.18307  0.63659  0.39261  1.0000
  C   C96       1.0  0.11046  0.56538  0.37415  1.0000
  C   C97       1.0  0.08976  0.55377  0.36645  1.0000
  C   C98       1.0  0.22130  0.55878  0.39011  1.0000
  C   C99       1.0  0.21338  0.56391  0.46405  1.0000
  C   C100      1.0  0.19738  0.56710  0.45314  1.0000
  H   H79       1.0  0.19437  0.66470  0.44935  1.0000
  H   H80       1.0  0.17214  0.63008  0.43971  1.0000
  H   H81       1.0  0.11617  0.57770  0.41366  1.0000
  H   H82       1.0  0.08123  0.55827  0.39927  1.0000
  H   H83       1.0  0.21991  0.56650  0.52605  1.0000
  H   H84       1.0  0.19305  0.57223  0.50674  1.0000
  C   C101      1.0  0.17658  0.57354  0.35311  1.0000
  C   C102      1.0  0.15585  0.56247  0.34839  1.0000
  C   C103      1.0  0.14430  0.57169  0.33732  1.0000
  C   C104      1.0  0.15437  0.59259  0.33152  1.0000
  C   C105      1.0  0.17520  0.60400  0.33359  1.0000
  C   C106      1.0  0.18597  0.59417  0.34532  1.0000
  H   H85       1.0  0.14910  0.54751  0.35544  1.0000
  H   H86       1.0  0.20103  0.60223  0.35000  1.0000
  C   C107      1.0  0.23883  0.55852  0.40126  1.0000
  C   C108      1.0  0.22681  0.68631  0.35363  1.0000
  H   H87       1.0  0.24709  0.56540  0.45458  1.0000
  H   H88       1.0  0.22312  0.69469  0.38950  1.0000
  C   C109      1.0  0.38567  0.56303  0.32816  1.0000
  C   C110      1.0  0.44571  0.62573  0.36774  1.0000
  C   C111      1.0  0.34416  0.54853  0.34092  1.0000
  C   C112      1.0  0.35365  0.54150  0.39882  1.0000
  C   C113      1.0  0.37406  0.54862  0.39264  1.0000
  C   C114      1.0  0.44527  0.54721  0.37419  1.0000
  C   C115      1.0  0.45688  0.53813  0.36651  1.0000
  C   C116      1.0  0.45191  0.66467  0.38993  1.0000
  C   C117      1.0  0.44681  0.65163  0.46387  1.0000
  C   C118      1.0  0.44361  0.63244  0.45289  1.0000
  H   H89       1.0  0.34596  0.53184  0.44947  1.0000
  H   H90       1.0  0.38059  0.54424  0.43980  1.0000
  H   H91       1.0  0.43297  0.54063  0.41384  1.0000
  H   H92       1.0  0.45240  0.52511  0.39947  1.0000
  H   H93       1.0  0.44418  0.65554  0.52584  1.0000
  H   H94       1.0  0.43847  0.62297  0.50647  1.0000
  C   C119      1.0  0.43713  0.60519  0.35300  1.0000
  C   C120      1.0  0.44819  0.59550  0.34829  1.0000
  C   C121      1.0  0.43896  0.57475  0.33731  1.0000
  C   C122      1.0  0.41805  0.56392  0.33170  1.0000
  C   C123      1.0  0.40665  0.57334  0.33371  1.0000
  C   C124      1.0  0.41650  0.59396  0.34526  1.0000
  H   H95       1.0  0.46315  0.60372  0.35526  1.0000
  H   H96       1.0  0.40845  0.60097  0.34990  1.0000
  C   C125      1.0  0.45215  0.68245  0.40117  1.0000
  C   C126      1.0  0.32435  0.54267  0.35375  1.0000
  H   H97       1.0  0.44524  0.68381  0.45441  1.0000
  H   H98       1.0  0.31598  0.53061  0.38962  1.0000
  C   C127      1.0  0.44764  0.82480  0.32807  1.0000
  C   C128      1.0  0.38492  0.82210  0.36771  1.0000
  C   C129      1.0  0.46212  0.79777  0.34093  1.0000
  C   C130      1.0  0.46911  0.81427  0.39893  1.0000
  C   C131      1.0  0.46199  0.82756  0.39275  1.0000
  C   C132      1.0  0.46344  0.90020  0.37417  1.0000
  C   C133      1.0  0.47252  0.92089  0.36651  1.0000
  C   C134      1.0  0.34598  0.78936  0.38998  1.0000
  C   C135      1.0  0.35907  0.79726  0.46382  1.0000
  C   C136      1.0  0.37826  0.81325  0.45281  1.0000
  H   H99       1.0  0.47880  0.81625  0.44951  1.0000
  H   H100      1.0  0.46642  0.83850  0.43977  1.0000
  H   H101      1.0  0.47003  0.89448  0.41374  1.0000
  H   H102      1.0  0.48555  0.92942  0.39938  1.0000
  H   H103      1.0  0.35515  0.79073  0.52583  1.0000
  H   H104      1.0  0.38773  0.81759  0.50636  1.0000
  C   C137      1.0  0.40546  0.83407  0.35292  1.0000
  C   C138      1.0  0.41514  0.85481  0.34831  1.0000
  C   C139      1.0  0.43590  0.86635  0.33728  1.0000
  C   C140      1.0  0.44673  0.85629  0.33152  1.0000
  C   C141      1.0  0.43731  0.83546  0.33353  1.0000
  C   C142      1.0  0.41670  0.82468  0.34516  1.0000
  H   H105      1.0  0.40692  0.86156  0.35528  1.0000
  H   H106      1.0  0.40970  0.80962  0.34976  1.0000
  C   C143      1.0  0.32819  0.77184  0.40126  1.0000
  C   C144      1.0  0.46796  0.78381  0.35379  1.0000
  H   H107      1.0  0.32681  0.76360  0.45464  1.0000
  H   H108      1.0  0.48003  0.78749  0.38961  1.0000
  C   C145      1.0  0.82705  0.38354  0.32536  1.0000
  C   C146      1.0  0.82402  0.44334  0.36638  1.0000
  C   C147      1.0  0.80004  0.34203  0.33839  1.0000
  C   C148      1.0  0.81649  0.35156  0.39658  1.0000
  C   C149      1.0  0.82977  0.37197  0.39033  1.0000
  C   C150      1.0  0.90230  0.44329  0.37267  1.0000
  C   C151      1.0  0.92300  0.45520  0.36704  1.0000
  C   C152      1.0  0.79129  0.44954  0.38852  1.0000
  C   C153      1.0  0.79906  0.44418  0.46224  1.0000
  C   C154      1.0  0.81505  0.44097  0.45129  1.0000
  H   H109      1.0  0.81841  0.34389  0.44754  1.0000
  H   H110      1.0  0.84064  0.37851  0.43768  1.0000
  H   H111      1.0  0.89658  0.43082  0.41115  1.0000
  H   H112      1.0  0.93153  0.45079  0.40069  1.0000
  H   H113      1.0  0.79243  0.44143  0.52403  1.0000
  H   H114      1.0  0.81929  0.43569  0.50463  1.0000
  C   C155      1.0  0.83606  0.43486  0.35119  1.0000
  C   C156      1.0  0.85680  0.44601  0.34668  1.0000
  C   C157      1.0  0.86843  0.43690  0.33533  1.0000
  C   C158      1.0  0.85845  0.41601  0.32918  1.0000
  C   C159      1.0  0.83763  0.40452  0.33104  1.0000
  C   C160      1.0  0.82677  0.41425  0.34298  1.0000
  H   H115      1.0  0.86347  0.46096  0.35427  1.0000
  H   H116      1.0  0.81170  0.40612  0.34749  1.0000
  C   C161      1.0  0.77380  0.44988  0.39966  1.0000
  C   C162      1.0  0.78606  0.32223  0.35137  1.0000
  H   H117      1.0  0.76552  0.44301  0.45294  1.0000
  H   H118      1.0  0.78974  0.31386  0.38730  1.0000
  C   C163      1.0  0.62710  0.44560  0.32556  1.0000
  C   C164      1.0  0.56725  0.38279  0.36604  1.0000
  C   C165      1.0  0.66861  0.46009  0.33852  1.0000
  C   C166      1.0  0.65908  0.46703  0.39672  1.0000
  C   C167      1.0  0.63868  0.45993  0.39039  1.0000
  C   C168      1.0  0.56737  0.46116  0.37274  1.0000
  C   C169      1.0  0.55547  0.46995  0.36714  1.0000
  C   C170      1.0  0.56107  0.34386  0.38821  1.0000
  C   C171      1.0  0.56639  0.35699  0.46195  1.0000
  C   C172      1.0  0.56954  0.37616  0.45104  1.0000
  H   H119      1.0  0.66676  0.47665  0.44751  1.0000
  H   H120      1.0  0.63213  0.46425  0.43773  1.0000
  H   H121      1.0  0.57982  0.46788  0.41140  1.0000
  H   H122      1.0  0.55985  0.48286  0.40093  1.0000
  H   H123      1.0  0.56912  0.35311  0.52379  1.0000
  H   H124      1.0  0.57483  0.38568  0.50439  1.0000
  C   C173      1.0  0.57575  0.40332  0.35111  1.0000
  C   C174      1.0  0.56463  0.41293  0.34662  1.0000
  C   C175      1.0  0.57376  0.43367  0.33537  1.0000
  C   C176      1.0  0.59465  0.44457  0.32938  1.0000
  C   C177      1.0  0.60612  0.43522  0.33118  1.0000
  C   C178      1.0  0.59637  0.41462  0.34296  1.0000
  H   H125      1.0  0.54967  0.40466  0.35410  1.0000
  H   H126      1.0  0.60448  0.40766  0.34745  1.0000
  C   C179      1.0  0.56080  0.32607  0.39935  1.0000
  C   C180      1.0  0.68841  0.46593  0.35142  1.0000
  H   H127      1.0  0.56770  0.32468  0.45257  1.0000
  H   H128      1.0  0.69679  0.47799  0.38731  1.0000
  C   C181      1.0  0.56502  0.18360  0.32548  1.0000
  C   C182      1.0  0.62784  0.18662  0.36632  1.0000
  C   C183      1.0  0.55055  0.21064  0.33850  1.0000
  C   C184      1.0  0.54362  0.19419  0.39675  1.0000
  C   C185      1.0  0.55075  0.18090  0.39051  1.0000
  C   C186      1.0  0.54951  0.10835  0.37266  1.0000
  C   C187      1.0  0.54071  0.08765  0.36708  1.0000
  C   C188      1.0  0.66680  0.21935  0.38842  1.0000
  C   C189      1.0  0.65367  0.21156  0.46217  1.0000
  C   C190      1.0  0.63447  0.19557  0.45123  1.0000
  H   H129      1.0  0.53402  0.19226  0.44761  1.0000
  H   H130      1.0  0.54640  0.17001  0.43776  1.0000
  H   H131      1.0  0.54277  0.11407  0.41124  1.0000
  H   H132      1.0  0.52780  0.07912  0.40079  1.0000
  H   H133      1.0  0.65756  0.21817  0.52402  1.0000
  H   H134      1.0  0.62497  0.19131  0.50464  1.0000
  C   C191      1.0  0.60733  0.17458  0.35113  1.0000
  C   C192      1.0  0.59773  0.15384  0.34668  1.0000
  C   C193      1.0  0.57699  0.14221  0.33533  1.0000
  C   C194      1.0  0.56608  0.15220  0.32918  1.0000
  C   C195      1.0  0.57542  0.17302  0.33106  1.0000
  C   C196      1.0  0.59602  0.18388  0.34292  1.0000
  H   H135      1.0  0.60601  0.14717  0.35424  1.0000
  H   H136      1.0  0.60295  0.19895  0.34750  1.0000
  C   C197      1.0  0.68461  0.23686  0.39955  1.0000
  C   C198      1.0  0.54474  0.22462  0.35144  1.0000
  H   H137      1.0  0.68602  0.24513  0.45284  1.0000
  H   H138      1.0  0.53269  0.22095  0.38738  1.0000
  C   C199      1.0  0.02760  0.51512  0.34413  1.0000
  C   C200      1.0  0.01663  0.50687  0.42334  1.0000
  C   C201      1.0  0.99587  0.49580  0.42205  1.0000
  H   H139      1.0  0.98853  0.48998  0.48109  1.0000
  H   H140      1.0  0.02379  0.50857  0.48289  1.0000
  H   H141      1.0  0.02442  0.53562  0.65584  1.0000
  H   H142      1.0  0.02662  0.51428  0.64226  1.0000
  N   N16       1.0  0.04733  0.52556  0.35045  1.0000
  C   C202      1.0  0.49553  0.51462  0.34413  1.0000
  C   C203      1.0  0.50378  0.51189  0.42336  1.0000
  C   C204      1.0  0.51485  0.50220  0.42207  1.0000
  H   H143      1.0  0.52067  0.50069  0.48112  1.0000
  H   H144      1.0  0.50207  0.51735  0.48290  1.0000
  H   H145      1.0  0.47506  0.49095  0.65579  1.0000
  H   H146      1.0  0.49640  0.51450  0.64227  1.0000
  N   N17       1.0  0.48508  0.52390  0.35043  1.0000
  C   C205      1.0  0.49604  0.98305  0.34417  1.0000
  C   C206      1.0  0.49876  0.99403  0.42338  1.0000
  C   C207      1.0  0.50845  0.01478  0.42208  1.0000
  H   H147      1.0  0.50997  0.02212  0.48111  1.0000
  H   H148      1.0  0.49330  0.98686  0.48293  1.0000
  H   H149      1.0  0.51973  0.98624  0.65588  1.0000
  H   H150      1.0  0.49619  0.98403  0.64229  1.0000
  N   N18       1.0  0.48675  0.96332  0.35048  1.0000
  C   C208      1.0  0.29890  0.55071  0.33335  1.0000
  C   C209      1.0  0.28881  0.54698  0.41643  1.0000
  C   C210      1.0  0.27048  0.54658  0.42180  1.0000
  N   N19       1.0  0.26150  0.54291  0.50339  1.0000
  C   C211      1.0  0.26903  0.53988  0.58002  1.0000
  C   C212      1.0  0.28735  0.54071  0.57447  1.0000
  N   N20       1.0  0.29643  0.54419  0.49352  1.0000
  H   H151      1.0  0.29386  0.53874  0.62996  1.0000
  C   C213      1.0  0.25843  0.53645  0.66589  1.0000
  H   H152      1.0  0.24460  0.53638  0.65672  1.0000
  N   N21       1.0  0.31681  0.55292  0.32467  1.0000
  C   C214      1.0  0.45992  0.75032  0.33332  1.0000
  C   C215      1.0  0.46362  0.74394  0.41643  1.0000
  C   C216      1.0  0.46405  0.72603  0.42178  1.0000
  N   N22       1.0  0.46769  0.72071  0.50340  1.0000
  C   C217      1.0  0.47068  0.73124  0.58005  1.0000
  C   C218      1.0  0.46985  0.74874  0.57450  1.0000
  N   N23       1.0  0.46638  0.75435  0.49354  1.0000
  H   H153      1.0  0.47178  0.75720  0.63002  1.0000
  C   C219      1.0  0.47409  0.72408  0.66594  1.0000
  H   H154      1.0  0.47418  0.71031  0.65676  1.0000
  N   N24       1.0  0.45770  0.76602  0.32466  1.0000
  C   C220      1.0  0.26030  0.71176  0.33325  1.0000
  C   C221      1.0  0.26667  0.72184  0.41636  1.0000
  C   C222      1.0  0.28459  0.74016  0.42176  1.0000
  N   N25       1.0  0.28991  0.74913  0.50339  1.0000
  C   C223      1.0  0.27936  0.74159  0.58001  1.0000
  C   C224      1.0  0.26186  0.72327  0.57441  1.0000
  N   N26       1.0  0.25625  0.71420  0.49344  1.0000
  H   H155      1.0  0.25339  0.71675  0.62990  1.0000
  C   C225      1.0  0.28652  0.75217  0.66591  1.0000
  H   H156      1.0  0.30030  0.76600  0.65676  1.0000
  N   N27       1.0  0.24460  0.69385  0.32457  1.0000
  C   C226      1.0  0.71383  0.45784  0.33125  1.0000
  C   C227      1.0  0.72390  0.46155  0.41439  1.0000
  C   C228      1.0  0.74220  0.46190  0.41988  1.0000
  N   N28       1.0  0.75116  0.46556  0.50152  1.0000
  C   C229      1.0  0.74364  0.46862  0.57808  1.0000
  C   C230      1.0  0.72534  0.46785  0.57239  1.0000
  N   N29       1.0  0.71627  0.46438  0.49140  1.0000
  H   H157      1.0  0.71884  0.46984  0.62782  1.0000
  C   C231      1.0  0.75421  0.47205  0.66400  1.0000
  H   H158      1.0  0.76803  0.47207  0.65493  1.0000
  N   N30       1.0  0.69592  0.45565  0.32247  1.0000
  C   C232      1.0  0.55287  0.25814  0.33120  1.0000
  C   C233      1.0  0.54918  0.26451  0.41435  1.0000
  C   C234      1.0  0.54881  0.28245  0.41981  1.0000
  N   N31       1.0  0.54518  0.28777  0.50148  1.0000
  C   C235      1.0  0.54216  0.27721  0.57807  1.0000
  C   C236      1.0  0.54295  0.25970  0.57242  1.0000
  N   N32       1.0  0.54639  0.25408  0.49141  1.0000
  H   H159      1.0  0.54099  0.25122  0.62788  1.0000
  C   C237      1.0  0.53877  0.28438  0.66401  1.0000
  H   H160      1.0  0.53873  0.29816  0.65491  1.0000
  N   N33       1.0  0.55503  0.24241  0.32241  1.0000
  C   C238      1.0  0.75256  0.29681  0.33117  1.0000
  C   C239      1.0  0.74618  0.28676  0.41433  1.0000
  C   C240      1.0  0.72824  0.26846  0.41984  1.0000
  N   N34       1.0  0.72292  0.25951  0.50150  1.0000
  C   C241      1.0  0.73350  0.26704  0.57806  1.0000
  C   C242      1.0  0.75102  0.28534  0.57236  1.0000
  N   N35       1.0  0.75663  0.29439  0.49135  1.0000
  H   H161      1.0  0.75952  0.29185  0.62780  1.0000
  C   C243      1.0  0.72634  0.25649  0.66401  1.0000
  H   H162      1.0  0.71254  0.24266  0.65495  1.0000
  N   N36       1.0  0.76827  0.31472  0.32236  1.0000
