data_image0
_chemical_formula_structural       C7HNO2NHC3HNO2NHC3HNO2NHC5H3C2O3C5H3C2O3C3HNO2NHC3HNO2NHC3HNO2NHC7HNO2NHC3HNO2NHC3HNO2NHC5H3C2O3C5H3C2O3C3HNO2NHC3HNO2NHC3HNO2NHC7HNO2NHC3HNO2NHC3HNO2NHC5H3C2O3C5H3C2O3C3HNO2NHC3HNO2NHC3HNO2NHC7HNO2NHC3HNO2NHC3HNO2NHC5H3C2O3C5H3C2O3C3HNO2NHC3HNO2NHC3HNO2NH
_chemical_formula_sum              "C144 H72 N48 O72"
_cell_length_a       43.8293
_cell_length_b       43.8294
_cell_length_c       15.0415
_cell_angle_alpha    90
_cell_angle_beta     90
_cell_angle_gamma    120

_space_group_name_H-M_alt    "P 1"
_space_group_IT_number       1

loop_
  _space_group_symop_operation_xyz
  'x, y, z'

loop_
  _atom_site_type_symbol
  _atom_site_label
  _atom_site_symmetry_multiplicity
  _atom_site_fract_x
  _atom_site_fract_y
  _atom_site_fract_z
  _atom_site_occupancy
  C   C1        1.0  0.19121  0.32201  0.24698  1.0000
  C   C2        1.0  0.21758  0.31252  0.25842  1.0000
  C   C3        1.0  0.30464  0.17523  0.41422  1.0000
  C   C4        1.0  0.27825  0.18470  0.40291  1.0000
  C   C5        1.0  0.23050  0.26494  0.28669  1.0000
  C   C6        1.0  0.22802  0.23361  0.25224  1.0000
  C   C7        1.0  0.24549  0.21810  0.29581  1.0000
  H   H1        1.0  0.24509  0.19702  0.26557  1.0000
  N   N1        1.0  0.20977  0.21921  0.17145  1.0000
  O   O1        1.0  0.23001  0.21974  0.11144  1.0000
  O   O2        1.0  0.18502  0.18811  0.18139  1.0000
  N   N2        1.0  0.21186  0.27908  0.24900  1.0000
  H   H2        1.0  0.19266  0.26386  0.20950  1.0000
  C   C8        1.0  0.23159  0.46486  0.28661  1.0000
  C   C9        1.0  0.26293  0.49372  0.25216  1.0000
  C   C10       1.0  0.27845  0.02670  0.29570  1.0000
  H   H3        1.0  0.29952  0.04737  0.26545  1.0000
  N   N3        1.0  0.27733  0.48985  0.17137  1.0000
  O   O3        1.0  0.27680  0.50956  0.11135  1.0000
  O   O4        1.0  0.30843  0.49620  0.18132  1.0000
  N   N4        1.0  0.21746  0.43207  0.24898  1.0000
  H   H4        1.0  0.23268  0.42809  0.20948  1.0000
  C   C11       1.0  0.03169  0.26604  0.28657  1.0000
  C   C12       1.0  0.00283  0.26853  0.25214  1.0000
  C   C13       1.0  0.46986  0.25111  0.29576  1.0000
  H   H5        1.0  0.44918  0.25147  0.26547  1.0000
  N   N5        1.0  0.00668  0.28676  0.17131  1.0000
  O   O5        1.0  0.98694  0.26652  0.11135  1.0000
  O   O6        1.0  0.00036  0.31154  0.18123  1.0000
  N   N6        1.0  0.06446  0.28468  0.24886  1.0000
  H   H6        1.0  0.06844  0.30388  0.20937  1.0000
  C   C14       1.0  0.17453  0.36850  0.24701  1.0000
  C   C15       1.0  0.13871  0.34163  0.24666  1.0000
  C   C16       1.0  0.12803  0.30533  0.24692  1.0000
  C   C17       1.0  0.15491  0.29639  0.24666  1.0000
  C   C18       1.0  0.20016  0.35783  0.24660  1.0000
  H   H7        1.0  0.14770  0.27043  0.25232  1.0000
  H   H8        1.0  0.22611  0.37657  0.25243  1.0000
  H   H9        1.0  0.11997  0.34884  0.25229  1.0000
  C   C19       1.0  0.18402  0.40436  0.25840  1.0000
  C   C20       1.0  0.09217  0.27895  0.25830  1.0000
  O   O7        1.0  0.25117  0.33839  0.27475  1.0000
  O   O8        1.0  0.15816  0.41208  0.27483  1.0000
  O   O9        1.0  0.08445  0.24536  0.27463  1.0000
  C   C21       1.0  0.32133  0.12874  0.41406  1.0000
  C   C22       1.0  0.35716  0.15562  0.41444  1.0000
  C   C23       1.0  0.36782  0.19191  0.41415  1.0000
  C   C24       1.0  0.34094  0.20085  0.41449  1.0000
  C   C25       1.0  0.29570  0.13940  0.41447  1.0000
  H   H10       1.0  0.34814  0.22680  0.40889  1.0000
  H   H11       1.0  0.26975  0.12066  0.40885  1.0000
  H   H12       1.0  0.37590  0.14842  0.40870  1.0000
  C   C26       1.0  0.31185  0.09288  0.40269  1.0000
  C   C27       1.0  0.40368  0.21830  0.40275  1.0000
  O   O10       1.0  0.24468  0.15884  0.38645  1.0000
  O   O11       1.0  0.33772  0.08516  0.38633  1.0000
  O   O12       1.0  0.41139  0.25188  0.38640  1.0000
  C   C28       1.0  0.26536  0.23228  0.37458  1.0000
  C   C29       1.0  0.26783  0.26362  0.40902  1.0000
  C   C30       1.0  0.25038  0.27915  0.36544  1.0000
  H   H13       1.0  0.25076  0.30021  0.39570  1.0000
  N   N7        1.0  0.28607  0.27802  0.48983  1.0000
  O   O13       1.0  0.26583  0.27749  0.54981  1.0000
  O   O14       1.0  0.31084  0.30911  0.47990  1.0000
  N   N8        1.0  0.28399  0.21814  0.41230  1.0000
  H   H14       1.0  0.30319  0.23336  0.45181  1.0000
  C   C31       1.0  0.26429  0.03238  0.37451  1.0000
  C   C32       1.0  0.23295  0.00352  0.40895  1.0000
  C   C33       1.0  0.21739  0.47055  0.36534  1.0000
  H   H15       1.0  0.19637  0.44987  0.39570  1.0000
  N   N9        1.0  0.21858  0.00738  0.48980  1.0000
  O   O15       1.0  0.21910  0.98765  0.54975  1.0000
  O   O16       1.0  0.18748  0.00105  0.47993  1.0000
  N   N10       1.0  0.27842  0.06517  0.41218  1.0000
  H   H16       1.0  0.26320  0.06914  0.45169  1.0000
  C   C34       1.0  0.46418  0.23123  0.37452  1.0000
  C   C35       1.0  0.49303  0.22873  0.40892  1.0000
  C   C36       1.0  0.02600  0.24614  0.36528  1.0000
  H   H17       1.0  0.04668  0.24578  0.39560  1.0000
  N   N11       1.0  0.48918  0.21050  0.48974  1.0000
  O   O17       1.0  0.50892  0.23074  0.54969  1.0000
  O   O18       1.0  0.49549  0.18571  0.47983  1.0000
  N   N12       1.0  0.43139  0.21258  0.41219  1.0000
  H   H18       1.0  0.42742  0.19337  0.45167  1.0000
  C   C37       1.0  0.19121  0.82201  0.24698  1.0000
  C   C38       1.0  0.21758  0.81252  0.25842  1.0000
  C   C39       1.0  0.30464  0.67523  0.41422  1.0000
  C   C40       1.0  0.27825  0.68470  0.40291  1.0000
  C   C41       1.0  0.23050  0.76494  0.28669  1.0000
  C   C42       1.0  0.22802  0.73361  0.25224  1.0000
  C   C43       1.0  0.24549  0.71810  0.29581  1.0000
  H   H19       1.0  0.24509  0.69702  0.26557  1.0000
  N   N13       1.0  0.20977  0.71921  0.17145  1.0000
  O   O19       1.0  0.23001  0.71974  0.11144  1.0000
  O   O20       1.0  0.18502  0.68811  0.18139  1.0000
  N   N14       1.0  0.21186  0.77909  0.24900  1.0000
  H   H20       1.0  0.19266  0.76386  0.20950  1.0000
  C   C44       1.0  0.23159  0.96486  0.28661  1.0000
  C   C45       1.0  0.26293  0.99372  0.25216  1.0000
  C   C46       1.0  0.27845  0.52670  0.29570  1.0000
  H   H21       1.0  0.29952  0.54737  0.26545  1.0000
  N   N15       1.0  0.27732  0.98985  0.17137  1.0000
  O   O21       1.0  0.27680  0.00956  0.11135  1.0000
  O   O22       1.0  0.30843  0.99619  0.18132  1.0000
  N   N16       1.0  0.21746  0.93207  0.24898  1.0000
  H   H22       1.0  0.23268  0.92809  0.20948  1.0000
  C   C47       1.0  0.03169  0.76604  0.28657  1.0000
  C   C48       1.0  0.00283  0.76853  0.25214  1.0000
  C   C49       1.0  0.46986  0.75111  0.29576  1.0000
  H   H23       1.0  0.44918  0.75147  0.26547  1.0000
  N   N17       1.0  0.00668  0.78676  0.17131  1.0000
  O   O23       1.0  0.98694  0.76652  0.11135  1.0000
  O   O24       1.0  0.00036  0.81154  0.18123  1.0000
  N   N18       1.0  0.06446  0.78468  0.24886  1.0000
  H   H24       1.0  0.06844  0.80388  0.20937  1.0000
  C   C50       1.0  0.17453  0.86850  0.24701  1.0000
  C   C51       1.0  0.13871  0.84162  0.24666  1.0000
  C   C52       1.0  0.12803  0.80533  0.24692  1.0000
  C   C53       1.0  0.15491  0.79639  0.24666  1.0000
  C   C54       1.0  0.20016  0.85783  0.24660  1.0000
  H   H25       1.0  0.14770  0.77043  0.25232  1.0000
  H   H26       1.0  0.22611  0.87657  0.25243  1.0000
  H   H27       1.0  0.11996  0.84883  0.25229  1.0000
  C   C55       1.0  0.18402  0.90436  0.25840  1.0000
  C   C56       1.0  0.09217  0.77895  0.25830  1.0000
  O   O25       1.0  0.25117  0.83839  0.27475  1.0000
  O   O26       1.0  0.15816  0.91208  0.27483  1.0000
  O   O27       1.0  0.08445  0.74536  0.27463  1.0000
  C   C57       1.0  0.32133  0.62874  0.41406  1.0000
  C   C58       1.0  0.35716  0.65562  0.41444  1.0000
  C   C59       1.0  0.36782  0.69191  0.41415  1.0000
  C   C60       1.0  0.34094  0.70085  0.41449  1.0000
  C   C61       1.0  0.29570  0.63940  0.41447  1.0000
  H   H28       1.0  0.34814  0.72680  0.40889  1.0000
  H   H29       1.0  0.26975  0.62066  0.40885  1.0000
  H   H30       1.0  0.37590  0.64842  0.40870  1.0000
  C   C62       1.0  0.31185  0.59288  0.40269  1.0000
  C   C63       1.0  0.40368  0.71830  0.40275  1.0000
  O   O28       1.0  0.24468  0.65884  0.38645  1.0000
  O   O29       1.0  0.33772  0.58516  0.38633  1.0000
  O   O30       1.0  0.41139  0.75188  0.38640  1.0000
  C   C64       1.0  0.26536  0.73228  0.37458  1.0000
  C   C65       1.0  0.26783  0.76362  0.40902  1.0000
  C   C66       1.0  0.25038  0.77915  0.36544  1.0000
  H   H31       1.0  0.25076  0.80021  0.39570  1.0000
  N   N19       1.0  0.28607  0.77801  0.48983  1.0000
  O   O31       1.0  0.26583  0.77749  0.54981  1.0000
  O   O32       1.0  0.31084  0.80912  0.47990  1.0000
  N   N20       1.0  0.28399  0.71814  0.41230  1.0000
  H   H32       1.0  0.30319  0.73336  0.45181  1.0000
  C   C67       1.0  0.26429  0.53238  0.37451  1.0000
  C   C68       1.0  0.23294  0.50352  0.40895  1.0000
  C   C69       1.0  0.21739  0.97055  0.36534  1.0000
  H   H33       1.0  0.19637  0.94987  0.39570  1.0000
  N   N21       1.0  0.21858  0.50737  0.48980  1.0000
  O   O33       1.0  0.21910  0.48765  0.54975  1.0000
  O   O34       1.0  0.18748  0.50105  0.47993  1.0000
  N   N22       1.0  0.27842  0.56517  0.41218  1.0000
  H   H34       1.0  0.26320  0.56914  0.45169  1.0000
  C   C70       1.0  0.46417  0.73123  0.37452  1.0000
  C   C71       1.0  0.49303  0.72873  0.40892  1.0000
  C   C72       1.0  0.02600  0.74614  0.36528  1.0000
  H   H35       1.0  0.04668  0.74578  0.39560  1.0000
  N   N23       1.0  0.48918  0.71050  0.48974  1.0000
  O   O35       1.0  0.50892  0.73074  0.54969  1.0000
  O   O36       1.0  0.49549  0.68571  0.47983  1.0000
  N   N24       1.0  0.43139  0.71258  0.41219  1.0000
  H   H36       1.0  0.42742  0.69337  0.45167  1.0000
  C   C73       1.0  0.69121  0.32201  0.24698  1.0000
  C   C74       1.0  0.71759  0.31252  0.25842  1.0000
  C   C75       1.0  0.80464  0.17523  0.41422  1.0000
  C   C76       1.0  0.77825  0.18470  0.40291  1.0000
  C   C77       1.0  0.73050  0.26494  0.28669  1.0000
  C   C78       1.0  0.72803  0.23361  0.25224  1.0000
  C   C79       1.0  0.74549  0.21810  0.29581  1.0000
  H   H37       1.0  0.74509  0.19702  0.26557  1.0000
  N   N25       1.0  0.70978  0.21921  0.17145  1.0000
  O   O37       1.0  0.73001  0.21974  0.11144  1.0000
  O   O38       1.0  0.68502  0.18811  0.18139  1.0000
  N   N26       1.0  0.71186  0.27908  0.24900  1.0000
  H   H38       1.0  0.69266  0.26386  0.20950  1.0000
  C   C80       1.0  0.73159  0.46486  0.28661  1.0000
  C   C81       1.0  0.76293  0.49372  0.25216  1.0000
  C   C82       1.0  0.77845  0.02670  0.29570  1.0000
  H   H39       1.0  0.79952  0.04737  0.26545  1.0000
  N   N27       1.0  0.77732  0.48985  0.17137  1.0000
  O   O39       1.0  0.77681  0.50956  0.11135  1.0000
  O   O40       1.0  0.80843  0.49620  0.18132  1.0000
  N   N28       1.0  0.71746  0.43207  0.24898  1.0000
  H   H40       1.0  0.73268  0.42809  0.20948  1.0000
  C   C83       1.0  0.53169  0.26604  0.28657  1.0000
  C   C84       1.0  0.50283  0.26853  0.25214  1.0000
  C   C85       1.0  0.96986  0.25111  0.29576  1.0000
  H   H41       1.0  0.94918  0.25147  0.26547  1.0000
  N   N29       1.0  0.50668  0.28676  0.17131  1.0000
  O   O41       1.0  0.48694  0.26652  0.11135  1.0000
  O   O42       1.0  0.50036  0.31154  0.18123  1.0000
  N   N30       1.0  0.56446  0.28468  0.24886  1.0000
  H   H42       1.0  0.56844  0.30388  0.20937  1.0000
  C   C86       1.0  0.67453  0.36850  0.24701  1.0000
  C   C87       1.0  0.63871  0.34163  0.24666  1.0000
  C   C88       1.0  0.62803  0.30533  0.24692  1.0000
  C   C89       1.0  0.65491  0.29639  0.24666  1.0000
  C   C90       1.0  0.70016  0.35783  0.24660  1.0000
  H   H43       1.0  0.64770  0.27043  0.25232  1.0000
  H   H44       1.0  0.72611  0.37657  0.25243  1.0000
  H   H45       1.0  0.61997  0.34884  0.25229  1.0000
  C   C91       1.0  0.68402  0.40436  0.25840  1.0000
  C   C92       1.0  0.59217  0.27895  0.25830  1.0000
  O   O43       1.0  0.75117  0.33839  0.27475  1.0000
  O   O44       1.0  0.65816  0.41208  0.27483  1.0000
  O   O45       1.0  0.58445  0.24536  0.27463  1.0000
  C   C93       1.0  0.82133  0.12874  0.41406  1.0000
  C   C94       1.0  0.85716  0.15562  0.41444  1.0000
  C   C95       1.0  0.86782  0.19191  0.41415  1.0000
  C   C96       1.0  0.84094  0.20085  0.41449  1.0000
  C   C97       1.0  0.79570  0.13940  0.41447  1.0000
  H   H46       1.0  0.84814  0.22680  0.40889  1.0000
  H   H47       1.0  0.76975  0.12066  0.40885  1.0000
  H   H48       1.0  0.87591  0.14842  0.40870  1.0000
  C   C98       1.0  0.81185  0.09288  0.40269  1.0000
  C   C99       1.0  0.90368  0.21830  0.40275  1.0000
  O   O46       1.0  0.74468  0.15884  0.38645  1.0000
  O   O47       1.0  0.83772  0.08516  0.38633  1.0000
  O   O48       1.0  0.91139  0.25188  0.38640  1.0000
  C   C100      1.0  0.76536  0.23228  0.37458  1.0000
  C   C101      1.0  0.76783  0.26362  0.40902  1.0000
  C   C102      1.0  0.75038  0.27915  0.36544  1.0000
  H   H49       1.0  0.75076  0.30021  0.39570  1.0000
  N   N31       1.0  0.78607  0.27802  0.48983  1.0000
  O   O49       1.0  0.76583  0.27749  0.54981  1.0000
  O   O50       1.0  0.81084  0.30911  0.47990  1.0000
  N   N32       1.0  0.78399  0.21814  0.41230  1.0000
  H   H50       1.0  0.80319  0.23336  0.45181  1.0000
  C   C103      1.0  0.76429  0.03238  0.37451  1.0000
  C   C104      1.0  0.73294  0.00352  0.40895  1.0000
  C   C105      1.0  0.71739  0.47055  0.36534  1.0000
  H   H51       1.0  0.69637  0.44987  0.39570  1.0000
  N   N33       1.0  0.71858  0.00738  0.48980  1.0000
  O   O51       1.0  0.71910  0.98765  0.54975  1.0000
  O   O52       1.0  0.68748  0.00105  0.47993  1.0000
  N   N34       1.0  0.77842  0.06517  0.41218  1.0000
  H   H52       1.0  0.76320  0.06914  0.45169  1.0000
  C   C106      1.0  0.96417  0.23123  0.37452  1.0000
  C   C107      1.0  0.99303  0.22873  0.40892  1.0000
  C   C108      1.0  0.52600  0.24614  0.36528  1.0000
  H   H53       1.0  0.54668  0.24578  0.39560  1.0000
  N   N35       1.0  0.98918  0.21050  0.48974  1.0000
  O   O53       1.0  0.00892  0.23074  0.54969  1.0000
  O   O54       1.0  0.99549  0.18571  0.47983  1.0000
  N   N36       1.0  0.93139  0.21258  0.41219  1.0000
  H   H54       1.0  0.92742  0.19337  0.45167  1.0000
  C   C109      1.0  0.69121  0.82201  0.24698  1.0000
  C   C110      1.0  0.71758  0.81252  0.25842  1.0000
  C   C111      1.0  0.80464  0.67523  0.41422  1.0000
  C   C112      1.0  0.77825  0.68470  0.40291  1.0000
  C   C113      1.0  0.73050  0.76494  0.28669  1.0000
  C   C114      1.0  0.72802  0.73361  0.25224  1.0000
  C   C115      1.0  0.74549  0.71810  0.29581  1.0000
  H   H55       1.0  0.74509  0.69702  0.26557  1.0000
  N   N37       1.0  0.70977  0.71921  0.17145  1.0000
  O   O55       1.0  0.73001  0.71974  0.11144  1.0000
  O   O56       1.0  0.68502  0.68811  0.18139  1.0000
  N   N38       1.0  0.71186  0.77909  0.24900  1.0000
  H   H56       1.0  0.69266  0.76386  0.20950  1.0000
  C   C116      1.0  0.73159  0.96486  0.28661  1.0000
  C   C117      1.0  0.76293  0.99372  0.25216  1.0000
  C   C118      1.0  0.77845  0.52670  0.29570  1.0000
  H   H57       1.0  0.79953  0.54737  0.26545  1.0000
  N   N39       1.0  0.77733  0.98985  0.17137  1.0000
  O   O57       1.0  0.77681  0.00956  0.11135  1.0000
  O   O58       1.0  0.80843  0.99619  0.18132  1.0000
  N   N40       1.0  0.71746  0.93207  0.24898  1.0000
  H   H58       1.0  0.73268  0.92809  0.20948  1.0000
  C   C119      1.0  0.53169  0.76604  0.28657  1.0000
  C   C120      1.0  0.50283  0.76853  0.25214  1.0000
  C   C121      1.0  0.96986  0.75111  0.29576  1.0000
  H   H59       1.0  0.94918  0.75147  0.26547  1.0000
  N   N41       1.0  0.50668  0.78676  0.17131  1.0000
  O   O59       1.0  0.48694  0.76652  0.11135  1.0000
  O   O60       1.0  0.50036  0.81154  0.18123  1.0000
  N   N42       1.0  0.56446  0.78468  0.24886  1.0000
  H   H60       1.0  0.56844  0.80388  0.20937  1.0000
  C   C122      1.0  0.67453  0.86850  0.24701  1.0000
  C   C123      1.0  0.63871  0.84162  0.24666  1.0000
  C   C124      1.0  0.62803  0.80533  0.24692  1.0000
  C   C125      1.0  0.65491  0.79639  0.24666  1.0000
  C   C126      1.0  0.70016  0.85783  0.24660  1.0000
  H   H61       1.0  0.64770  0.77043  0.25232  1.0000
  H   H62       1.0  0.72611  0.87657  0.25243  1.0000
  H   H63       1.0  0.61996  0.84883  0.25229  1.0000
  C   C127      1.0  0.68402  0.90436  0.25840  1.0000
  C   C128      1.0  0.59217  0.77895  0.25830  1.0000
  O   O61       1.0  0.75117  0.83839  0.27475  1.0000
  O   O62       1.0  0.65816  0.91208  0.27483  1.0000
  O   O63       1.0  0.58445  0.74536  0.27463  1.0000
  C   C129      1.0  0.82133  0.62874  0.41406  1.0000
  C   C130      1.0  0.85716  0.65562  0.41444  1.0000
  C   C131      1.0  0.86782  0.69191  0.41415  1.0000
  C   C132      1.0  0.84094  0.70085  0.41449  1.0000
  C   C133      1.0  0.79570  0.63940  0.41447  1.0000
  H   H64       1.0  0.84814  0.72680  0.40889  1.0000
  H   H65       1.0  0.76975  0.62066  0.40885  1.0000
  H   H66       1.0  0.87590  0.64842  0.40870  1.0000
  C   C134      1.0  0.81185  0.59288  0.40269  1.0000
  C   C135      1.0  0.90368  0.71830  0.40275  1.0000
  O   O64       1.0  0.74468  0.65884  0.38645  1.0000
  O   O65       1.0  0.83772  0.58516  0.38633  1.0000
  O   O66       1.0  0.91140  0.75188  0.38640  1.0000
  C   C136      1.0  0.76536  0.73228  0.37458  1.0000
  C   C137      1.0  0.76783  0.76362  0.40902  1.0000
  C   C138      1.0  0.75038  0.77915  0.36544  1.0000
  H   H67       1.0  0.75076  0.80021  0.39570  1.0000
  N   N43       1.0  0.78607  0.77801  0.48983  1.0000
  O   O67       1.0  0.76583  0.77749  0.54981  1.0000
  O   O68       1.0  0.81084  0.80912  0.47990  1.0000
  N   N44       1.0  0.78399  0.71814  0.41230  1.0000
  H   H68       1.0  0.80319  0.73336  0.45181  1.0000
  C   C139      1.0  0.76429  0.53238  0.37451  1.0000
  C   C140      1.0  0.73295  0.50352  0.40895  1.0000
  C   C141      1.0  0.71739  0.97055  0.36534  1.0000
  H   H69       1.0  0.69637  0.94987  0.39570  1.0000
  N   N45       1.0  0.71857  0.50737  0.48980  1.0000
  O   O69       1.0  0.71910  0.48765  0.54975  1.0000
  O   O70       1.0  0.68748  0.50105  0.47993  1.0000
  N   N46       1.0  0.77842  0.56517  0.41218  1.0000
  H   H70       1.0  0.76320  0.56914  0.45169  1.0000
  C   C142      1.0  0.96418  0.73123  0.37452  1.0000
  C   C143      1.0  0.99303  0.72873  0.40892  1.0000
  C   C144      1.0  0.52600  0.74614  0.36528  1.0000
  H   H71       1.0  0.54668  0.74578  0.39560  1.0000
  N   N47       1.0  0.98918  0.71050  0.48974  1.0000
  O   O71       1.0  0.00892  0.73074  0.54969  1.0000
  O   O72       1.0  0.99548  0.68571  0.47983  1.0000
  N   N48       1.0  0.93139  0.71258  0.41219  1.0000
  H   H72       1.0  0.92742  0.69337  0.45167  1.0000
