data_image0
_chemical_formula_structural       C3HC2HC2HCHC2HC2HON2HCOCOC4OHC4HOC4OHC4HOC4OHCNHCNCHNHCNHCNCHNHCNCHNHCNCHNHC2H2C4H4C4H4C4HC3OC4HC6HO2C7HOC4HC6HO2C4HC6HO2C4HC6HO2
_chemical_formula_sum              "C108 H42 O18 N12"
_cell_length_a       31.6827
_cell_length_b       31.6828
_cell_length_c       14.8082
_cell_angle_alpha    90
_cell_angle_beta     90
_cell_angle_gamma    120

_space_group_name_H-M_alt    "P 1"
_space_group_IT_number       1

loop_
  _space_group_symop_operation_xyz
  'x, y, z'

loop_
  _atom_site_type_symbol
  _atom_site_label
  _atom_site_symmetry_multiplicity
  _atom_site_fract_x
  _atom_site_fract_y
  _atom_site_fract_z
  _atom_site_occupancy
  C   C1        1.0  0.03669  0.51995  0.34496  1.0000
  C   C2        1.0  0.06490  0.57209  0.34497  1.0000
  C   C3        1.0  0.11647  0.59847  0.34450  1.0000
  H   H1        1.0  0.04848  0.59266  0.34526  1.0000
  C   C4        1.0  0.11647  0.52122  0.34447  1.0000
  C   C5        1.0  0.06490  0.49601  0.34490  1.0000
  H   H2        1.0  0.04848  0.45903  0.34510  1.0000
  C   C6        1.0  0.14207  0.57264  0.34533  1.0000
  C   C7        1.0  0.16695  0.49433  0.26611  1.0000
  H   H3        1.0  0.15688  0.50113  0.20463  1.0000
  C   C8        1.0  0.16687  0.67586  0.26619  1.0000
  H   H4        1.0  0.15692  0.65899  0.20470  1.0000
  C   C9        1.0  0.14409  0.49695  0.34612  1.0000
  C   C10       1.0  0.16286  0.49136  0.42908  1.0000
  H   H5        1.0  0.14902  0.49646  0.48795  1.0000
  C   C11       1.0  0.14407  0.65035  0.34621  1.0000
  C   C12       1.0  0.16283  0.67469  0.42919  1.0000
  H   H6        1.0  0.14900  0.65573  0.48805  1.0000
  O   O1        1.0  0.19199  0.59761  0.34468  1.0000
  N   N1        1.0  0.20680  0.48897  0.27038  1.0000
  N   N2        1.0  0.20676  0.72106  0.27050  1.0000
  H   H7        1.0  0.20237  0.60280  0.40826  1.0000
  C   C13       1.0  0.20425  0.48533  0.43205  1.0000
  O   O2        1.0  0.20651  0.48527  0.59470  1.0000
  C   C14       1.0  0.20422  0.72211  0.43216  1.0000
  O   O3        1.0  0.20648  0.72442  0.59482  1.0000
  C   C15       1.0  0.98284  0.49302  0.34492  1.0000
  C   C16       1.0  0.87746  0.44034  0.34496  1.0000
  C   C17       1.0  0.90306  0.41450  0.34431  1.0000
  C   C18       1.0  0.95463  0.44088  0.34488  1.0000
  O   O4        1.0  0.82754  0.41538  0.34401  1.0000
  H   H8        1.0  0.97105  0.42030  0.34517  1.0000
  C   C19       1.0  0.49626  0.51993  0.34496  1.0000
  C   C20       1.0  0.44411  0.49600  0.34485  1.0000
  C   C21       1.0  0.41774  0.52119  0.34440  1.0000
  C   C22       1.0  0.44357  0.57263  0.34525  1.0000
  H   H9        1.0  0.42354  0.45900  0.34500  1.0000
  O   O5        1.0  0.41861  0.59758  0.34452  1.0000
  C   C23       1.0  0.52318  0.49300  0.34496  1.0000
  C   C24       1.0  0.57586  0.44030  0.34521  1.0000
  C   C25       1.0  0.60170  0.49173  0.34438  1.0000
  C   C26       1.0  0.57533  0.51693  0.34479  1.0000
  O   O6        1.0  0.60082  0.41534  0.34442  1.0000
  H   H10       1.0  0.59590  0.55392  0.34490  1.0000
  C   C27       1.0  0.49626  0.97957  0.34495  1.0000
  C   C28       1.0  0.52019  0.95136  0.34477  1.0000
  C   C29       1.0  0.49499  0.89979  0.34426  1.0000
  C   C30       1.0  0.44356  0.87418  0.34511  1.0000
  H   H11       1.0  0.55718  0.96777  0.34494  1.0000
  O   O7        1.0  0.41860  0.82427  0.34431  1.0000
  C   C31       1.0  0.52318  0.03342  0.34497  1.0000
  C   C32       1.0  0.57588  0.13881  0.34521  1.0000
  C   C33       1.0  0.52445  0.11321  0.34454  1.0000
  C   C34       1.0  0.49925  0.06164  0.34504  1.0000
  O   O8        1.0  0.60083  0.18872  0.34442  1.0000
  H   H12       1.0  0.46226  0.04522  0.34539  1.0000
  C   C35       1.0  0.34036  0.49422  0.26596  1.0000
  N   N3        1.0  0.29517  0.48893  0.27034  1.0000
  H   H13       1.0  0.35724  0.50116  0.20448  1.0000
  C   C36       1.0  0.52197  0.84930  0.26575  1.0000
  N   N4        1.0  0.52737  0.80947  0.27014  1.0000
  C   C37       1.0  0.52204  0.67587  0.26612  1.0000
  H   H14       1.0  0.51536  0.85943  0.20417  1.0000
  N   N5        1.0  0.52738  0.72108  0.27034  1.0000
  H   H15       1.0  0.51530  0.65906  0.20459  1.0000
  C   C38       1.0  0.34035  0.84931  0.26616  1.0000
  N   N6        1.0  0.29514  0.80945  0.27047  1.0000
  H   H16       1.0  0.35720  0.85938  0.20466  1.0000
  C   C39       1.0  0.67917  0.51878  0.26590  1.0000
  N   N7        1.0  0.72440  0.52418  0.27016  1.0000
  C   C40       1.0  0.85264  0.51882  0.26572  1.0000
  H   H17       1.0  0.66242  0.51221  0.20433  1.0000
  N   N8        1.0  0.81280  0.52421  0.27007  1.0000
  H   H18       1.0  0.86279  0.51223  0.20414  1.0000
  C   C41       1.0  0.49743  0.16359  0.26624  1.0000
  N   N9        1.0  0.49213  0.20349  0.27056  1.0000
  C   C42       1.0  0.49749  0.33709  0.26613  1.0000
  H   H19       1.0  0.50433  0.15363  0.20475  1.0000
  N   N10       1.0  0.49213  0.29188  0.27048  1.0000
  H   H20       1.0  0.50426  0.35394  0.20464  1.0000
  C   C43       1.0  0.85266  0.33702  0.26580  1.0000
  N   N11       1.0  0.81281  0.29180  0.27013  1.0000
  C   C44       1.0  0.67917  0.16359  0.26580  1.0000
  H   H21       1.0  0.86285  0.35375  0.20422  1.0000
  N   N12       1.0  0.72441  0.20342  0.27013  1.0000
  H   H22       1.0  0.66243  0.15343  0.20423  1.0000
  C   C45       1.0  0.95463  0.51696  0.34480  1.0000
  C   C46       1.0  0.90306  0.49177  0.34423  1.0000
  H   H23       1.0  0.81704  0.41017  0.40753  1.0000
  H   H24       1.0  0.97105  0.55395  0.34501  1.0000
  C   C47       1.0  0.49500  0.59845  0.34450  1.0000
  C   C48       1.0  0.52019  0.57207  0.34499  1.0000
  C   C49       1.0  0.49924  0.44085  0.34504  1.0000
  C   C50       1.0  0.52444  0.41447  0.34452  1.0000
  H   H25       1.0  0.41338  0.60277  0.40808  1.0000
  H   H26       1.0  0.60599  0.41008  0.40797  1.0000
  H   H27       1.0  0.55719  0.59264  0.34532  1.0000
  H   H28       1.0  0.46225  0.42028  0.34540  1.0000
  C   C51       1.0  0.41773  0.89979  0.34444  1.0000
  C   C52       1.0  0.44411  0.95136  0.34500  1.0000
  C   C53       1.0  0.57533  0.06163  0.34481  1.0000
  C   C54       1.0  0.60170  0.11320  0.34436  1.0000
  H   H29       1.0  0.41334  0.81383  0.40786  1.0000
  H   H30       1.0  0.60603  0.19916  0.40798  1.0000
  H   H31       1.0  0.42354  0.96778  0.34534  1.0000
  H   H32       1.0  0.59590  0.04521  0.34495  1.0000
  C   C55       1.0  0.36585  0.49692  0.34598  1.0000
  C   C56       1.0  0.27116  0.48459  0.34905  1.0000
  C   C57       1.0  0.29414  0.48532  0.43202  1.0000
  C   C58       1.0  0.34156  0.49134  0.42902  1.0000
  H   H33       1.0  0.36052  0.49645  0.48786  1.0000
  C   C59       1.0  0.22648  0.48459  0.34906  1.0000
  C   C60       1.0  0.22627  0.48397  0.51431  1.0000
  C   C61       1.0  0.27078  0.48396  0.51429  1.0000
  O   O9        1.0  0.29185  0.48525  0.59467  1.0000
  C   C62       1.0  0.51925  0.87216  0.34562  1.0000
  C   C63       1.0  0.53159  0.78976  0.34890  1.0000
  C   C64       1.0  0.53070  0.81195  0.43183  1.0000
  C   C65       1.0  0.52461  0.85331  0.42871  1.0000
  H   H34       1.0  0.51955  0.86719  0.48757  1.0000
  C   C66       1.0  0.53162  0.74509  0.34899  1.0000
  C   C67       1.0  0.51927  0.65032  0.34610  1.0000
  C   C68       1.0  0.52476  0.67467  0.42905  1.0000
  C   C69       1.0  0.53073  0.72208  0.43199  1.0000
  C   C70       1.0  0.53193  0.74540  0.51423  1.0000
  C   C71       1.0  0.53192  0.78990  0.51415  1.0000
  H   H35       1.0  0.51950  0.65572  0.48795  1.0000
  O   O10       1.0  0.53053  0.72431  0.59464  1.0000
  O   O11       1.0  0.53046  0.80963  0.59449  1.0000
  C   C72       1.0  0.22644  0.74508  0.34919  1.0000
  C   C73       1.0  0.27112  0.78978  0.34916  1.0000
  C   C74       1.0  0.36585  0.87218  0.34614  1.0000
  C   C75       1.0  0.34152  0.85341  0.42913  1.0000
  C   C76       1.0  0.29410  0.81202  0.43213  1.0000
  C   C77       1.0  0.27074  0.79000  0.51441  1.0000
  C   C78       1.0  0.22624  0.74549  0.51443  1.0000
  H   H36       1.0  0.36047  0.86726  0.48799  1.0000
  O   O12       1.0  0.29182  0.80977  0.59478  1.0000
  C   C79       1.0  0.65357  0.51599  0.34581  1.0000
  C   C80       1.0  0.74836  0.52835  0.34886  1.0000
  C   C81       1.0  0.72529  0.52738  0.43185  1.0000
  C   C82       1.0  0.67785  0.52130  0.42881  1.0000
  H   H37       1.0  0.65892  0.51618  0.48770  1.0000
  C   C83       1.0  0.79305  0.52837  0.34882  1.0000
  C   C84       1.0  0.87545  0.51604  0.34561  1.0000
  C   C85       1.0  0.85663  0.52145  0.42870  1.0000
  C   C86       1.0  0.81520  0.52741  0.43177  1.0000
  C   C87       1.0  0.79309  0.52855  0.51407  1.0000
  C   C88       1.0  0.74857  0.52854  0.51411  1.0000
  H   H38       1.0  0.87036  0.51616  0.48755  1.0000
  O   O13       1.0  0.81279  0.52708  0.59442  1.0000
  O   O14       1.0  0.72741  0.52702  0.59449  1.0000
  C   C89       1.0  0.50017  0.14081  0.34627  1.0000
  C   C90       1.0  0.48783  0.22320  0.34924  1.0000
  C   C91       1.0  0.48861  0.20099  0.43222  1.0000
  C   C92       1.0  0.49463  0.15960  0.42925  1.0000
  H   H39       1.0  0.49977  0.14578  0.48810  1.0000
  C   C93       1.0  0.48782  0.26788  0.34920  1.0000
  C   C94       1.0  0.50016  0.36258  0.34613  1.0000
  C   C95       1.0  0.49462  0.33831  0.42917  1.0000
  C   C96       1.0  0.48859  0.29088  0.43217  1.0000
  C   C97       1.0  0.48729  0.26754  0.51446  1.0000
  C   C98       1.0  0.48729  0.22304  0.51448  1.0000
  H   H40       1.0  0.49975  0.35728  0.48801  1.0000
  O   O15       1.0  0.48862  0.28864  0.59482  1.0000
  O   O16       1.0  0.48862  0.20329  0.59487  1.0000
  C   C99       1.0  0.87543  0.36262  0.34571  1.0000
  C   C100      1.0  0.79302  0.26788  0.34887  1.0000
  C   C101      1.0  0.81512  0.29098  0.43184  1.0000
  C   C102      1.0  0.85649  0.33842  0.42877  1.0000
  H   H41       1.0  0.87031  0.35738  0.48764  1.0000
  C   C103      1.0  0.74833  0.22320  0.34887  1.0000
  C   C104      1.0  0.65358  0.14082  0.34572  1.0000
  C   C105      1.0  0.67782  0.15966  0.42880  1.0000
  C   C106      1.0  0.72522  0.20109  0.43183  1.0000
  C   C107      1.0  0.74847  0.22323  0.51411  1.0000
  C   C108      1.0  0.79298  0.26773  0.51412  1.0000
  H   H42       1.0  0.65881  0.14596  0.48765  1.0000
  O   O17       1.0  0.72730  0.20356  0.59447  1.0000
  O   O18       1.0  0.81263  0.28892  0.59449  1.0000
