data_image0
_chemical_formula_structural       C8H8C7H3NO2NHC7H3NO2NHC3NC3NC5NC5NC20H18C4O4C3H2C2HNO2NHC3H2C2HNO2NH
_chemical_formula_sum              "C72 H42 N12 O12"
_cell_length_a       29.7669
_cell_length_b       29.7682
_cell_length_c       15.0389
_cell_angle_alpha    90
_cell_angle_beta     90
_cell_angle_gamma    90.0333

_space_group_name_H-M_alt    "P 1"
_space_group_IT_number       1

loop_
  _space_group_symop_operation_xyz
  'x, y, z'

loop_
  _atom_site_type_symbol
  _atom_site_label
  _atom_site_symmetry_multiplicity
  _atom_site_fract_x
  _atom_site_fract_y
  _atom_site_fract_z
  _atom_site_occupancy
  C   C1        1.0  0.99003  0.80768  0.28010  1.0000
  C   C2        1.0  0.98661  0.76058  0.28224  1.0000
  C   C3        1.0  0.18770  0.99044  0.27945  1.0000
  C   C4        1.0  0.23483  0.98744  0.28166  1.0000
  C   C5        1.0  0.00124  0.23495  0.28888  1.0000
  C   C6        1.0  0.99896  0.18780  0.28757  1.0000
  C   C7        1.0  0.80761  0.99991  0.28879  1.0000
  C   C8        1.0  0.76045  0.00164  0.29013  1.0000
  H   H1        1.0  0.74345  0.99678  0.23175  1.0000
  H   H2        1.0  0.82370  0.99315  0.23012  1.0000
  H   H3        1.0  0.99114  0.17181  0.22932  1.0000
  H   H4        1.0  0.99565  0.25202  0.23086  1.0000
  H   H5        1.0  0.17180  0.99416  0.21954  1.0000
  H   H6        1.0  0.25189  0.98835  0.22266  1.0000
  H   H7        1.0  0.98714  0.74354  0.22319  1.0000
  H   H8        1.0  0.99374  0.82357  0.22016  1.0000
  C   C9        1.0  0.02741  0.40038  0.29462  1.0000
  C   C10       1.0  0.02907  0.44751  0.29080  1.0000
  C   C11       1.0  0.99084  0.47313  0.31320  1.0000
  C   C12       1.0  0.99317  0.52060  0.31319  1.0000
  C   C13       1.0  0.99188  0.54459  0.23167  1.0000
  C   C14       1.0  0.99455  0.59201  0.23331  1.0000
  C   C15       1.0  0.99767  0.61591  0.31404  1.0000
  H   H9        1.0  0.99310  0.60940  0.17464  1.0000
  H   H10       1.0  0.05539  0.38241  0.27754  1.0000
  H   H11       1.0  0.05843  0.46292  0.27266  1.0000
  N   N1        1.0  0.98733  0.52094  0.15034  1.0000
  O   O1        1.0  0.02022  0.52784  0.09973  1.0000
  O   O2        1.0  0.95195  0.53179  0.11015  1.0000
  N   N2        1.0  0.00010  0.66182  0.31252  1.0000
  H   H12       1.0  0.01957  0.67493  0.26730  1.0000
  C   C16       1.0  0.59527  0.02756  0.29481  1.0000
  C   C17       1.0  0.54816  0.02946  0.29091  1.0000
  C   C18       1.0  0.52230  0.99125  0.31248  1.0000
  C   C19       1.0  0.47484  0.99382  0.31252  1.0000
  C   C20       1.0  0.45082  0.99263  0.23103  1.0000
  C   C21       1.0  0.40341  0.99546  0.23274  1.0000
  C   C22       1.0  0.37955  0.99870  0.31351  1.0000
  H   H13       1.0  0.38600  0.99408  0.17409  1.0000
  H   H14       1.0  0.61343  0.05554  0.27844  1.0000
  H   H15       1.0  0.53292  0.05898  0.27333  1.0000
  N   N3        1.0  0.47443  0.98800  0.14967  1.0000
  O   O3        1.0  0.46767  0.02091  0.09909  1.0000
  O   O4        1.0  0.46340  0.95267  0.10949  1.0000
  N   N4        1.0  0.33363  0.00117  0.31204  1.0000
  H   H16       1.0  0.32052  0.02062  0.26685  1.0000
  C   C23       1.0  0.87680  0.92108  0.36584  1.0000
  C   C24       1.0  0.90760  0.88652  0.36312  1.0000
  C   C25       1.0  0.95062  0.90527  0.36009  1.0000
  N   N5        1.0  0.94431  0.95034  0.36014  1.0000
  C   C26       1.0  0.90029  0.96174  0.36375  1.0000
  C   C27       1.0  0.88016  0.00504  0.36594  1.0000
  C   C28       1.0  0.90404  0.04631  0.36636  1.0000
  N   N6        1.0  0.94900  0.05231  0.36495  1.0000
  C   C29       1.0  0.96019  0.09627  0.36611  1.0000
  C   C30       1.0  0.91975  0.12002  0.36883  1.0000
  C   C31       1.0  0.88512  0.08923  0.36817  1.0000
  C   C32       1.0  0.00394  0.11522  0.36480  1.0000
  C   C33       1.0  0.04463  0.09026  0.36158  1.0000
  N   N7        1.0  0.05090  0.04518  0.36109  1.0000
  C   C34       1.0  0.09492  0.03373  0.35800  1.0000
  C   C35       1.0  0.11848  0.07433  0.35612  1.0000
  C   C36       1.0  0.08768  0.10894  0.35772  1.0000
  C   C37       1.0  0.11498  0.99040  0.35725  1.0000
  C   C38       1.0  0.09115  0.94913  0.35666  1.0000
  N   N8        1.0  0.04620  0.94315  0.35676  1.0000
  C   C39       1.0  0.03506  0.89918  0.35637  1.0000
  C   C40       1.0  0.07549  0.87538  0.35568  1.0000
  C   C41       1.0  0.11010  0.90621  0.35566  1.0000
  C   C42       1.0  0.99131  0.88031  0.35785  1.0000
  C   C43       1.0  0.98811  0.83269  0.35969  1.0000
  C   C44       1.0  0.98085  0.73747  0.36375  1.0000
  C   C45       1.0  0.97836  0.76296  0.44304  1.0000
  C   C46       1.0  0.98231  0.80999  0.44126  1.0000
  C   C47       1.0  0.16265  0.98797  0.35895  1.0000
  C   C48       1.0  0.25796  0.98161  0.36313  1.0000
  C   C49       1.0  0.23243  0.97863  0.44233  1.0000
  C   C50       1.0  0.18536  0.98208  0.44048  1.0000
  C   C51       1.0  0.00709  0.16290  0.36580  1.0000
  C   C52       1.0  0.01822  0.18588  0.44494  1.0000
  C   C53       1.0  0.02132  0.23301  0.44564  1.0000
  C   C54       1.0  0.01227  0.25823  0.36796  1.0000
  C   C55       1.0  0.83242  0.00731  0.36743  1.0000
  C   C56       1.0  0.80930  0.01700  0.44714  1.0000
  C   C57       1.0  0.73704  0.01146  0.36967  1.0000
  C   C58       1.0  0.76214  0.01965  0.44790  1.0000
  H   H17       1.0  0.74629  0.02667  0.50667  1.0000
  H   H18       1.0  0.82666  0.02251  0.50490  1.0000
  H   H19       1.0  0.84281  0.91658  0.36937  1.0000
  H   H20       1.0  0.89929  0.85320  0.36406  1.0000
  H   H21       1.0  0.96835  0.97179  0.35753  1.0000
  H   H22       1.0  0.02687  0.02374  0.36471  1.0000
  H   H23       1.0  0.85178  0.09739  0.36930  1.0000
  H   H24       1.0  0.91551  0.15408  0.37047  1.0000
  H   H25       1.0  0.02426  0.16845  0.50240  1.0000
  H   H26       1.0  0.02922  0.24876  0.50409  1.0000
  H   H27       1.0  0.09602  0.14224  0.35643  1.0000
  H   H28       1.0  0.15251  0.07873  0.35349  1.0000
  H   H29       1.0  0.07967  0.84131  0.35578  1.0000
  H   H30       1.0  0.14346  0.89810  0.35536  1.0000
  H   H31       1.0  0.16780  0.98001  0.49888  1.0000
  H   H32       1.0  0.24792  0.97460  0.50258  1.0000
  H   H33       1.0  0.98072  0.82754  0.49974  1.0000
  H   H34       1.0  0.97449  0.74746  0.50333  1.0000
  C   C59       1.0  0.30551  0.97792  0.36690  1.0000
  C   C60       1.0  0.97693  0.68994  0.36742  1.0000
  C   C61       1.0  0.68948  0.01444  0.37015  1.0000
  C   C62       1.0  0.01534  0.30579  0.36859  1.0000
  O   O5        1.0  0.32263  0.94811  0.42599  1.0000
  O   O6        1.0  0.04735  0.32483  0.42046  1.0000
  O   O7        1.0  0.67036  0.04589  0.42318  1.0000
  O   O8        1.0  0.94718  0.67287  0.42672  1.0000
  C   C63       1.0  0.98764  0.37802  0.32080  1.0000
  C   C64       1.0  0.95078  0.45102  0.33794  1.0000
  C   C65       1.0  0.94906  0.40383  0.34036  1.0000
  H   H35       1.0  0.92270  0.46905  0.35435  1.0000
  H   H36       1.0  0.91984  0.38836  0.35905  1.0000
  C   C66       1.0  0.00033  0.59131  0.39412  1.0000
  C   C67       1.0  0.99788  0.54392  0.39497  1.0000
  H   H37       1.0  0.00478  0.60796  0.45295  1.0000
  N   N9        1.0  0.00071  0.51963  0.47591  1.0000
  O   O9        1.0  0.03756  0.52630  0.51448  1.0000
  O   O10       1.0  0.96942  0.52997  0.52814  1.0000
  N   N10       1.0  0.98561  0.33221  0.32379  1.0000
  H   H38       1.0  0.95869  0.31815  0.29925  1.0000
  C   C68       1.0  0.61737  0.98754  0.32028  1.0000
  C   C69       1.0  0.54415  0.95095  0.33647  1.0000
  C   C70       1.0  0.59133  0.94898  0.33901  1.0000
  H   H39       1.0  0.52593  0.92288  0.35231  1.0000
  H   H40       1.0  0.60662  0.91960  0.35713  1.0000
  C   C71       1.0  0.40419  0.00128  0.39353  1.0000
  C   C72       1.0  0.45158  0.99865  0.39434  1.0000
  H   H41       1.0  0.38758  0.00577  0.45240  1.0000
  N   N11       1.0  0.47593  0.00135  0.47523  1.0000
  O   O11       1.0  0.46947  0.03822  0.51385  1.0000
  O   O12       1.0  0.46544  0.97010  0.52746  1.0000
  N   N12       1.0  0.66315  0.98536  0.32345  1.0000
  H   H42       1.0  0.67715  0.95866  0.29799  1.0000
