data_image0
_chemical_formula_structural       C2HCN2C2HC4N2HCHC2HC4N2HCHC12HCH4N2C2NCHNCHCHC2NCHNCHCHC2HCN2C2HC4N2HCHC2HC4N2HCHC12HCH4N2C2NCHNCHCHC2NCHNCHCHC2HCN2C2HC4N2HCHC2HC4N2HCHC12HCH4N2C2NCHNCHCHC2NCHNCHCHC2HCN2C2HC4N2HCHC2HC4N2HCHC12HCH4N2C2NCHNCHCHC2NCHNCHCH
_chemical_formula_sum              "C160 H72 N48"
_cell_length_a       39.3544
_cell_length_b       39.3544
_cell_length_c       15.1483
_cell_angle_alpha    90
_cell_angle_beta     90
_cell_angle_gamma    90

_space_group_name_H-M_alt    "P 1"
_space_group_IT_number       1

loop_
  _space_group_symop_operation_xyz
  'x, y, z'

loop_
  _atom_site_type_symbol
  _atom_site_label
  _atom_site_symmetry_multiplicity
  _atom_site_fract_x
  _atom_site_fract_y
  _atom_site_fract_z
  _atom_site_occupancy
  C   C1        1.0  0.48136  0.00872  0.33524  1.0000
  C   C2        1.0  0.42182  0.02400  0.36553  1.0000
  H   H1        1.0  0.41351  0.07578  0.39209  1.0000
  C   C3        1.0  0.04120  0.99347  0.30401  1.0000
  N   N1        1.0  0.38778  0.02082  0.35463  1.0000
  N   N2        1.0  0.10026  0.47196  0.29013  1.0000
  C   C4        1.0  0.01528  0.28148  0.26525  1.0000
  C   C5        1.0  0.01785  0.31697  0.27255  1.0000
  H   H2        1.0  0.03320  0.32983  0.22943  1.0000
  C   C6        1.0  0.99126  0.22825  0.31673  1.0000
  C   C7        1.0  0.98805  0.15734  0.30260  1.0000
  C   C8        1.0  0.00886  0.17615  0.24415  1.0000
  C   C9        1.0  0.01061  0.21168  0.25075  1.0000
  N   N3        1.0  0.03064  0.23056  0.19661  1.0000
  N   N4        1.0  0.03282  0.26365  0.20341  1.0000
  H   H3        1.0  0.02327  0.16410  0.19730  1.0000
  C   C10       1.0  0.98788  0.12175  0.29797  1.0000
  H   H4        1.0  0.00213  0.11017  0.25018  1.0000
  C   C11       1.0  0.20885  0.97534  0.26250  1.0000
  C   C12       1.0  0.17323  0.97388  0.26690  1.0000
  H   H5        1.0  0.16051  0.95788  0.22511  1.0000
  C   C13       1.0  0.26203  0.99857  0.31650  1.0000
  C   C14       1.0  0.33313  0.99933  0.30945  1.0000
  C   C15       1.0  0.31456  0.97788  0.25205  1.0000
  C   C16       1.0  0.27892  0.97740  0.25502  1.0000
  N   N5        1.0  0.26021  0.95699  0.20148  1.0000
  N   N6        1.0  0.22697  0.95602  0.20500  1.0000
  H   H6        1.0  0.32682  0.96234  0.20813  1.0000
  C   C17       1.0  0.36874  0.99896  0.30707  1.0000
  H   H7        1.0  0.38050  0.98377  0.26160  1.0000
  C   C18       1.0  0.44679  0.49897  0.34645  1.0000
  C   C19       1.0  0.43196  0.05762  0.38290  1.0000
  C   C20       1.0  0.46496  0.06835  0.36055  1.0000
  C   C21       1.0  0.49030  0.04373  0.34086  1.0000
  C   C22       1.0  0.43867  0.46412  0.34201  1.0000
  C   C23       1.0  0.02478  0.05260  0.33052  1.0000
  C   C24       1.0  0.00667  0.48366  0.31606  1.0000
  C   C25       1.0  0.99764  0.44868  0.30970  1.0000
  C   C26       1.0  0.02283  0.42411  0.28822  1.0000
  C   C27       1.0  0.05579  0.43495  0.26580  1.0000
  C   C28       1.0  0.06607  0.46851  0.28334  1.0000
  C   C29       1.0  0.46312  0.43987  0.32019  1.0000
  H   H8        1.0  0.07419  0.41690  0.25481  1.0000
  C   C30       1.0  0.04923  0.02836  0.30851  1.0000
  H   H9        1.0  0.45457  0.41582  0.30892  1.0000
  H   H10       1.0  0.41491  0.45540  0.35644  1.0000
  H   H11       1.0  0.07281  0.03724  0.29303  1.0000
  H   H12       1.0  0.03319  0.07676  0.34084  1.0000
  N   N7        1.0  0.46732  0.10241  0.34856  1.0000
  N   N8        1.0  0.02031  0.38992  0.29720  1.0000
  C   C31       1.0  0.99899  0.33452  0.33778  1.0000
  C   C32       1.0  0.97798  0.31527  0.39472  1.0000
  N   N9        1.0  0.97604  0.28109  0.38634  1.0000
  C   C33       1.0  0.99372  0.26372  0.32419  1.0000
  H   H13       1.0  0.96371  0.32664  0.44282  1.0000
  N   N10       1.0  0.97123  0.20971  0.37143  1.0000
  C   C34       1.0  0.96891  0.17544  0.36620  1.0000
  H   H14       1.0  0.95362  0.16320  0.41051  1.0000
  C   C35       1.0  0.99964  0.37002  0.34597  1.0000
  H   H15       1.0  0.98554  0.38104  0.39494  1.0000
  C   C36       1.0  0.15542  0.99435  0.32825  1.0000
  C   C37       1.0  0.17449  0.01613  0.38364  1.0000
  N   N11       1.0  0.20879  0.01693  0.37826  1.0000
  C   C38       1.0  0.22643  0.99749  0.32032  1.0000
  H   H16       1.0  0.16293  0.03152  0.42903  1.0000
  N   N12       1.0  0.28037  0.01903  0.37061  1.0000
  C   C39       1.0  0.31474  0.02015  0.36877  1.0000
  H   H17       1.0  0.32680  0.03600  0.41209  1.0000
  C   C40       1.0  0.11990  0.99406  0.33520  1.0000
  H   H18       1.0  0.10879  0.00895  0.38240  1.0000
  C   C41       1.0  0.48136  0.50872  0.33524  1.0000
  C   C42       1.0  0.42182  0.52400  0.36553  1.0000
  H   H19       1.0  0.41351  0.57578  0.39209  1.0000
  C   C43       1.0  0.04120  0.49347  0.30401  1.0000
  N   N13       1.0  0.38778  0.52082  0.35463  1.0000
  N   N14       1.0  0.10026  0.97196  0.29013  1.0000
  C   C44       1.0  0.01528  0.78148  0.26525  1.0000
  C   C45       1.0  0.01785  0.81697  0.27255  1.0000
  H   H20       1.0  0.03320  0.82983  0.22943  1.0000
  C   C46       1.0  0.99126  0.72825  0.31673  1.0000
  C   C47       1.0  0.98805  0.65734  0.30260  1.0000
  C   C48       1.0  0.00886  0.67615  0.24415  1.0000
  C   C49       1.0  0.01061  0.71168  0.25075  1.0000
  N   N15       1.0  0.03064  0.73056  0.19661  1.0000
  N   N16       1.0  0.03282  0.76365  0.20341  1.0000
  H   H21       1.0  0.02327  0.66410  0.19730  1.0000
  C   C50       1.0  0.98788  0.62175  0.29797  1.0000
  H   H22       1.0  0.00213  0.61017  0.25018  1.0000
  C   C51       1.0  0.20885  0.47534  0.26250  1.0000
  C   C52       1.0  0.17323  0.47388  0.26690  1.0000
  H   H23       1.0  0.16051  0.45788  0.22511  1.0000
  C   C53       1.0  0.26203  0.49857  0.31650  1.0000
  C   C54       1.0  0.33313  0.49932  0.30945  1.0000
  C   C55       1.0  0.31456  0.47788  0.25205  1.0000
  C   C56       1.0  0.27892  0.47740  0.25502  1.0000
  N   N17       1.0  0.26021  0.45699  0.20148  1.0000
  N   N18       1.0  0.22697  0.45602  0.20500  1.0000
  H   H24       1.0  0.32682  0.46233  0.20813  1.0000
  C   C57       1.0  0.36874  0.49896  0.30707  1.0000
  H   H25       1.0  0.38050  0.48377  0.26160  1.0000
  C   C58       1.0  0.44679  0.99897  0.34645  1.0000
  C   C59       1.0  0.43196  0.55761  0.38290  1.0000
  C   C60       1.0  0.46496  0.56835  0.36055  1.0000
  C   C61       1.0  0.49030  0.54373  0.34086  1.0000
  C   C62       1.0  0.43867  0.96412  0.34201  1.0000
  C   C63       1.0  0.02478  0.55259  0.33052  1.0000
  C   C64       1.0  0.00667  0.98366  0.31606  1.0000
  C   C65       1.0  0.99764  0.94868  0.30970  1.0000
  C   C66       1.0  0.02283  0.92411  0.28822  1.0000
  C   C67       1.0  0.05579  0.93495  0.26580  1.0000
  C   C68       1.0  0.06607  0.96851  0.28334  1.0000
  C   C69       1.0  0.46312  0.93987  0.32019  1.0000
  H   H26       1.0  0.07419  0.91690  0.25481  1.0000
  C   C70       1.0  0.04923  0.52836  0.30851  1.0000
  H   H27       1.0  0.45457  0.91582  0.30892  1.0000
  H   H28       1.0  0.41491  0.95540  0.35644  1.0000
  H   H29       1.0  0.07281  0.53724  0.29303  1.0000
  H   H30       1.0  0.03319  0.57676  0.34084  1.0000
  N   N19       1.0  0.46732  0.60241  0.34856  1.0000
  N   N20       1.0  0.02031  0.88992  0.29720  1.0000
  C   C71       1.0  0.99899  0.83452  0.33778  1.0000
  C   C72       1.0  0.97798  0.81527  0.39472  1.0000
  N   N21       1.0  0.97604  0.78109  0.38634  1.0000
  C   C73       1.0  0.99372  0.76372  0.32419  1.0000
  H   H31       1.0  0.96371  0.82664  0.44282  1.0000
  N   N22       1.0  0.97123  0.70971  0.37143  1.0000
  C   C74       1.0  0.96891  0.67544  0.36620  1.0000
  H   H32       1.0  0.95362  0.66320  0.41051  1.0000
  C   C75       1.0  0.99964  0.87002  0.34597  1.0000
  H   H33       1.0  0.98554  0.88104  0.39494  1.0000
  C   C76       1.0  0.15542  0.49435  0.32825  1.0000
  C   C77       1.0  0.17449  0.51613  0.38364  1.0000
  N   N23       1.0  0.20879  0.51693  0.37826  1.0000
  C   C78       1.0  0.22643  0.49749  0.32032  1.0000
  H   H34       1.0  0.16293  0.53152  0.42903  1.0000
  N   N24       1.0  0.28037  0.51902  0.37061  1.0000
  C   C79       1.0  0.31474  0.52016  0.36877  1.0000
  H   H35       1.0  0.32680  0.53600  0.41209  1.0000
  C   C80       1.0  0.11990  0.49406  0.33520  1.0000
  H   H36       1.0  0.10879  0.50896  0.38240  1.0000
  C   C81       1.0  0.98136  0.00872  0.33524  1.0000
  C   C82       1.0  0.92182  0.02400  0.36553  1.0000
  H   H37       1.0  0.91351  0.07578  0.39209  1.0000
  C   C83       1.0  0.54120  0.99347  0.30401  1.0000
  N   N25       1.0  0.88778  0.02082  0.35463  1.0000
  N   N26       1.0  0.60026  0.47196  0.29013  1.0000
  C   C84       1.0  0.51529  0.28148  0.26525  1.0000
  C   C85       1.0  0.51785  0.31697  0.27255  1.0000
  H   H38       1.0  0.53320  0.32983  0.22943  1.0000
  C   C86       1.0  0.49126  0.22825  0.31673  1.0000
  C   C87       1.0  0.48805  0.15734  0.30260  1.0000
  C   C88       1.0  0.50886  0.17615  0.24415  1.0000
  C   C89       1.0  0.51061  0.21168  0.25075  1.0000
  N   N27       1.0  0.53064  0.23056  0.19661  1.0000
  N   N28       1.0  0.53282  0.26365  0.20341  1.0000
  H   H39       1.0  0.52327  0.16410  0.19730  1.0000
  C   C90       1.0  0.48788  0.12175  0.29797  1.0000
  H   H40       1.0  0.50213  0.11017  0.25018  1.0000
  C   C91       1.0  0.70885  0.97534  0.26250  1.0000
  C   C92       1.0  0.67323  0.97388  0.26690  1.0000
  H   H41       1.0  0.66051  0.95788  0.22511  1.0000
  C   C93       1.0  0.76203  0.99857  0.31650  1.0000
  C   C94       1.0  0.83313  0.99933  0.30945  1.0000
  C   C95       1.0  0.81456  0.97788  0.25205  1.0000
  C   C96       1.0  0.77892  0.97740  0.25502  1.0000
  N   N29       1.0  0.76021  0.95699  0.20148  1.0000
  N   N30       1.0  0.72697  0.95602  0.20500  1.0000
  H   H42       1.0  0.82682  0.96234  0.20813  1.0000
  C   C97       1.0  0.86874  0.99896  0.30707  1.0000
  H   H43       1.0  0.88050  0.98377  0.26160  1.0000
  C   C98       1.0  0.94679  0.49897  0.34645  1.0000
  C   C99       1.0  0.93196  0.05762  0.38290  1.0000
  C   C100      1.0  0.96496  0.06835  0.36055  1.0000
  C   C101      1.0  0.99030  0.04373  0.34086  1.0000
  C   C102      1.0  0.93867  0.46412  0.34201  1.0000
  C   C103      1.0  0.52478  0.05260  0.33052  1.0000
  C   C104      1.0  0.50667  0.48366  0.31606  1.0000
  C   C105      1.0  0.49764  0.44868  0.30970  1.0000
  C   C106      1.0  0.52283  0.42411  0.28822  1.0000
  C   C107      1.0  0.55579  0.43495  0.26580  1.0000
  C   C108      1.0  0.56607  0.46851  0.28334  1.0000
  C   C109      1.0  0.96312  0.43987  0.32019  1.0000
  H   H44       1.0  0.57419  0.41690  0.25481  1.0000
  C   C110      1.0  0.54923  0.02836  0.30851  1.0000
  H   H45       1.0  0.95457  0.41582  0.30892  1.0000
  H   H46       1.0  0.91491  0.45540  0.35644  1.0000
  H   H47       1.0  0.57281  0.03724  0.29303  1.0000
  H   H48       1.0  0.53319  0.07676  0.34084  1.0000
  N   N31       1.0  0.96732  0.10241  0.34856  1.0000
  N   N32       1.0  0.52031  0.38992  0.29720  1.0000
  C   C111      1.0  0.49899  0.33452  0.33778  1.0000
  C   C112      1.0  0.47798  0.31527  0.39472  1.0000
  N   N33       1.0  0.47604  0.28109  0.38634  1.0000
  C   C113      1.0  0.49372  0.26372  0.32419  1.0000
  H   H49       1.0  0.46371  0.32664  0.44282  1.0000
  N   N34       1.0  0.47123  0.20971  0.37143  1.0000
  C   C114      1.0  0.46891  0.17544  0.36620  1.0000
  H   H50       1.0  0.45362  0.16320  0.41051  1.0000
  C   C115      1.0  0.49964  0.37002  0.34597  1.0000
  H   H51       1.0  0.48554  0.38104  0.39494  1.0000
  C   C116      1.0  0.65542  0.99435  0.32825  1.0000
  C   C117      1.0  0.67449  0.01613  0.38364  1.0000
  N   N35       1.0  0.70879  0.01693  0.37826  1.0000
  C   C118      1.0  0.72644  0.99749  0.32032  1.0000
  H   H52       1.0  0.66293  0.03152  0.42903  1.0000
  N   N36       1.0  0.78037  0.01903  0.37061  1.0000
  C   C119      1.0  0.81474  0.02015  0.36877  1.0000
  H   H53       1.0  0.82680  0.03600  0.41209  1.0000
  C   C120      1.0  0.61990  0.99406  0.33520  1.0000
  H   H54       1.0  0.60879  0.00895  0.38240  1.0000
  C   C121      1.0  0.98136  0.50872  0.33524  1.0000
  C   C122      1.0  0.92182  0.52400  0.36553  1.0000
  H   H55       1.0  0.91351  0.57578  0.39209  1.0000
  C   C123      1.0  0.54120  0.49347  0.30401  1.0000
  N   N37       1.0  0.88778  0.52082  0.35463  1.0000
  N   N38       1.0  0.60026  0.97196  0.29013  1.0000
  C   C124      1.0  0.51529  0.78148  0.26525  1.0000
  C   C125      1.0  0.51785  0.81697  0.27255  1.0000
  H   H56       1.0  0.53320  0.82983  0.22943  1.0000
  C   C126      1.0  0.49126  0.72825  0.31673  1.0000
  C   C127      1.0  0.48805  0.65734  0.30260  1.0000
  C   C128      1.0  0.50886  0.67615  0.24415  1.0000
  C   C129      1.0  0.51061  0.71168  0.25075  1.0000
  N   N39       1.0  0.53064  0.73056  0.19661  1.0000
  N   N40       1.0  0.53282  0.76365  0.20341  1.0000
  H   H57       1.0  0.52327  0.66410  0.19730  1.0000
  C   C130      1.0  0.48788  0.62175  0.29797  1.0000
  H   H58       1.0  0.50213  0.61017  0.25018  1.0000
  C   C131      1.0  0.70885  0.47534  0.26250  1.0000
  C   C132      1.0  0.67323  0.47388  0.26690  1.0000
  H   H59       1.0  0.66051  0.45788  0.22511  1.0000
  C   C133      1.0  0.76203  0.49857  0.31650  1.0000
  C   C134      1.0  0.83313  0.49932  0.30945  1.0000
  C   C135      1.0  0.81456  0.47788  0.25205  1.0000
  C   C136      1.0  0.77892  0.47740  0.25502  1.0000
  N   N41       1.0  0.76021  0.45699  0.20148  1.0000
  N   N42       1.0  0.72697  0.45602  0.20500  1.0000
  H   H60       1.0  0.82682  0.46233  0.20813  1.0000
  C   C137      1.0  0.86874  0.49896  0.30707  1.0000
  H   H61       1.0  0.88050  0.48377  0.26160  1.0000
  C   C138      1.0  0.94679  0.99897  0.34645  1.0000
  C   C139      1.0  0.93196  0.55761  0.38290  1.0000
  C   C140      1.0  0.96496  0.56835  0.36055  1.0000
  C   C141      1.0  0.99030  0.54373  0.34086  1.0000
  C   C142      1.0  0.93867  0.96412  0.34201  1.0000
  C   C143      1.0  0.52478  0.55259  0.33052  1.0000
  C   C144      1.0  0.50667  0.98366  0.31606  1.0000
  C   C145      1.0  0.49764  0.94868  0.30970  1.0000
  C   C146      1.0  0.52283  0.92411  0.28822  1.0000
  C   C147      1.0  0.55579  0.93495  0.26580  1.0000
  C   C148      1.0  0.56607  0.96851  0.28334  1.0000
  C   C149      1.0  0.96312  0.93987  0.32019  1.0000
  H   H62       1.0  0.57419  0.91690  0.25481  1.0000
  C   C150      1.0  0.54923  0.52836  0.30851  1.0000
  H   H63       1.0  0.95457  0.91582  0.30892  1.0000
  H   H64       1.0  0.91491  0.95540  0.35644  1.0000
  H   H65       1.0  0.57281  0.53724  0.29303  1.0000
  H   H66       1.0  0.53319  0.57676  0.34084  1.0000
  N   N43       1.0  0.96732  0.60241  0.34856  1.0000
  N   N44       1.0  0.52031  0.88992  0.29720  1.0000
  C   C151      1.0  0.49899  0.83452  0.33778  1.0000
  C   C152      1.0  0.47798  0.81527  0.39472  1.0000
  N   N45       1.0  0.47604  0.78109  0.38634  1.0000
  C   C153      1.0  0.49372  0.76372  0.32419  1.0000
  H   H67       1.0  0.46371  0.82664  0.44282  1.0000
  N   N46       1.0  0.47123  0.70971  0.37143  1.0000
  C   C154      1.0  0.46891  0.67544  0.36620  1.0000
  H   H68       1.0  0.45362  0.66320  0.41051  1.0000
  C   C155      1.0  0.49964  0.87002  0.34597  1.0000
  H   H69       1.0  0.48554  0.88104  0.39494  1.0000
  C   C156      1.0  0.65542  0.49435  0.32825  1.0000
  C   C157      1.0  0.67449  0.51613  0.38364  1.0000
  N   N47       1.0  0.70879  0.51693  0.37826  1.0000
  C   C158      1.0  0.72644  0.49749  0.32032  1.0000
  H   H70       1.0  0.66293  0.53152  0.42903  1.0000
  N   N48       1.0  0.78037  0.51902  0.37061  1.0000
  C   C159      1.0  0.81474  0.52016  0.36877  1.0000
  H   H71       1.0  0.82680  0.53600  0.41209  1.0000
  C   C160      1.0  0.61990  0.49406  0.33520  1.0000
  H   H72       1.0  0.60879  0.50896  0.38240  1.0000
