data_image0
_chemical_formula_structural       C16H16C16H16C16H16C3NH2NH2NC3NH2NH2NC3NH2NH2NC3NH2NH2NC3NH2NH2NC3NH2NH2NC3NC3NC5NC5NC36H26C4H4C3NC3NC5NC5NC36H26C4H4C3NC3NC5NC5NC36H26C4H4C3NH2NH2NC3NH2NH2NC3NH2NH2NC3NH2NH2NC3NH2NH2NC3NH2NH2N
_chemical_formula_sum              "C252 H186 N48"
_cell_length_a       67.7131
_cell_length_b       67.713
_cell_length_c       14.8313
_cell_angle_alpha    89.7172
_cell_angle_beta     90.2828
_cell_angle_gamma    120

_space_group_name_H-M_alt    "P 1"
_space_group_IT_number       1

loop_
  _space_group_symop_operation_xyz
  'x, y, z'

loop_
  _atom_site_type_symbol
  _atom_site_label
  _atom_site_symmetry_multiplicity
  _atom_site_fract_x
  _atom_site_fract_y
  _atom_site_fract_z
  _atom_site_occupancy
  C   C1        1.0  0.13098  0.68245  0.28869  1.0000
  C   C2        1.0  0.11135  0.66062  0.28488  1.0000
  C   C3        1.0  0.16734  0.73249  0.31813  1.0000
  C   C4        1.0  0.18876  0.75272  0.32011  1.0000
  C   C5        1.0  0.13149  0.54373  0.28171  1.0000
  C   C6        1.0  0.11280  0.54747  0.27935  1.0000
  C   C7        1.0  0.19700  0.54535  0.32280  1.0000
  C   C8        1.0  0.17817  0.54891  0.32009  1.0000
  C   C9        1.0  0.96926  0.47406  0.28456  1.0000
  C   C10       1.0  0.94974  0.45216  0.28853  1.0000
  C   C11       1.0  0.89259  0.38156  0.31934  1.0000
  C   C12       1.0  0.91390  0.40192  0.31694  1.0000
  C   C13       1.0  0.96810  0.58699  0.27954  1.0000
  C   C14       1.0  0.94930  0.59056  0.28195  1.0000
  C   C15       1.0  0.90247  0.58481  0.32038  1.0000
  C   C16       1.0  0.88350  0.58812  0.32315  1.0000
  H   H1        1.0  0.86906  0.57699  0.28865  1.0000
  H   H2        1.0  0.90094  0.57112  0.28540  1.0000
  H   H3        1.0  0.94060  0.58886  0.22325  1.0000
  H   H4        1.0  0.97214  0.58228  0.22003  1.0000
  H   H5        1.0  0.97483  0.48176  0.22307  1.0000
  H   H6        1.0  0.94167  0.44471  0.22939  1.0000
  H   H7        1.0  0.10872  0.55232  0.21986  1.0000
  H   H8        1.0  0.14009  0.54547  0.22301  1.0000
  H   H9        1.0  0.17982  0.56274  0.28529  1.0000
  H   H10       1.0  0.21145  0.55645  0.28844  1.0000
  H   H11       1.0  0.10540  0.65318  0.22333  1.0000
  H   H12       1.0  0.13874  0.69011  0.22936  1.0000
  H   H13       1.0  0.19165  0.76558  0.27614  1.0000
  H   H14       1.0  0.15527  0.73153  0.27376  1.0000
  H   H15       1.0  0.92573  0.40323  0.27107  1.0000
  H   H16       1.0  0.88954  0.36897  0.27416  1.0000
  C   C17       1.0  0.42434  0.54059  0.29067  1.0000
  C   C18       1.0  0.44615  0.54275  0.28714  1.0000
  C   C19       1.0  0.37427  0.52683  0.31950  1.0000
  C   C20       1.0  0.35404  0.52803  0.32112  1.0000
  C   C21       1.0  0.56305  0.67988  0.28503  1.0000
  C   C22       1.0  0.55932  0.65745  0.28258  1.0000
  C   C23       1.0  0.56141  0.74366  0.32624  1.0000
  C   C24       1.0  0.55785  0.72128  0.32350  1.0000
  C   C25       1.0  0.63263  0.58731  0.28690  1.0000
  C   C26       1.0  0.65453  0.58967  0.29057  1.0000
  C   C27       1.0  0.72516  0.60308  0.32032  1.0000
  C   C28       1.0  0.70479  0.60402  0.31823  1.0000
  C   C29       1.0  0.51976  0.47320  0.28272  1.0000
  C   C30       1.0  0.51620  0.45083  0.28522  1.0000
  C   C31       1.0  0.52196  0.40968  0.32379  1.0000
  C   C32       1.0  0.51865  0.38739  0.32659  1.0000
  H   H17       1.0  0.52978  0.38415  0.29213  1.0000
  H   H18       1.0  0.53565  0.42191  0.28882  1.0000
  H   H19       1.0  0.51790  0.44395  0.22655  1.0000
  H   H20       1.0  0.52448  0.48207  0.22322  1.0000
  H   H21       1.0  0.62487  0.58525  0.22553  1.0000
  H   H22       1.0  0.66193  0.58915  0.23132  1.0000
  H   H23       1.0  0.55448  0.64867  0.22305  1.0000
  H   H24       1.0  0.56135  0.68689  0.22633  1.0000
  H   H25       1.0  0.54405  0.70919  0.28856  1.0000
  H   H26       1.0  0.55033  0.74709  0.29182  1.0000
  H   H27       1.0  0.45364  0.54440  0.22568  1.0000
  H   H28       1.0  0.41670  0.54077  0.23123  1.0000
  H   H29       1.0  0.34122  0.51814  0.27704  1.0000
  H   H30       1.0  0.37526  0.51581  0.27529  1.0000
  H   H31       1.0  0.70344  0.61463  0.27240  1.0000
  H   H32       1.0  0.73770  0.61269  0.27490  1.0000
  C   C33       1.0  0.56614  0.97577  0.29303  1.0000
  C   C34       1.0  0.56397  0.99542  0.28927  1.0000
  C   C35       1.0  0.57992  0.93944  0.32225  1.0000
  C   C36       1.0  0.57873  0.91801  0.32408  1.0000
  C   C37       1.0  0.42695  0.97532  0.28527  1.0000
  C   C38       1.0  0.44939  0.99401  0.28324  1.0000
  C   C39       1.0  0.36312  0.90977  0.32522  1.0000
  C   C40       1.0  0.38551  0.92861  0.32288  1.0000
  C   C41       1.0  0.51941  0.13743  0.28908  1.0000
  C   C42       1.0  0.51707  0.15697  0.29296  1.0000
  C   C43       1.0  0.50366  0.21411  0.32321  1.0000
  C   C44       1.0  0.50271  0.19280  0.32102  1.0000
  C   C45       1.0  0.63346  0.13859  0.28339  1.0000
  C   C46       1.0  0.65583  0.15739  0.28548  1.0000
  C   C47       1.0  0.69701  0.20425  0.32318  1.0000
  C   C48       1.0  0.71931  0.22323  0.32557  1.0000
  H   H33       1.0  0.72251  0.23764  0.29098  1.0000
  H   H34       1.0  0.68476  0.20576  0.28834  1.0000
  H   H35       1.0  0.66266  0.16606  0.22666  1.0000
  H   H36       1.0  0.62454  0.13451  0.22400  1.0000
  H   H37       1.0  0.52144  0.13186  0.22763  1.0000
  H   H38       1.0  0.51755  0.16501  0.23376  1.0000
  H   H39       1.0  0.45823  0.99813  0.22387  1.0000
  H   H40       1.0  0.42001  0.96677  0.22644  1.0000
  H   H41       1.0  0.39764  0.92699  0.28818  1.0000
  H   H42       1.0  0.35973  0.89536  0.29067  1.0000
  H   H43       1.0  0.56234  0.00138  0.22775  1.0000
  H   H44       1.0  0.56597  0.96806  0.23367  1.0000
  H   H45       1.0  0.58860  0.91514  0.28001  1.0000
  H   H46       1.0  0.59092  0.95151  0.27789  1.0000
  H   H47       1.0  0.49210  0.18095  0.27515  1.0000
  H   H48       1.0  0.49404  0.21714  0.27789  1.0000
  C   C49       1.0  0.29313  0.53107  0.35828  1.0000
  C   C50       1.0  0.28373  0.53275  0.27425  1.0000
  C   C51       1.0  0.26293  0.53345  0.27360  1.0000
  N   N1        1.0  0.29509  0.53406  0.19627  1.0000
  H   H49       1.0  0.30931  0.53381  0.19626  1.0000
  H   H50       1.0  0.29092  0.53760  0.13847  1.0000
  N   N2        1.0  0.25186  0.53256  0.19486  1.0000
  H   H51       1.0  0.23754  0.53261  0.19414  1.0000
  H   H52       1.0  0.25614  0.52916  0.13738  1.0000
  N   N3        1.0  0.31235  0.52982  0.35838  1.0000
  C   C52       1.0  0.57570  0.85400  0.36150  1.0000
  C   C53       1.0  0.57404  0.84309  0.27749  1.0000
  C   C54       1.0  0.57336  0.82161  0.27691  1.0000
  N   N4        1.0  0.57275  0.85331  0.19945  1.0000
  H   H53       1.0  0.57290  0.86772  0.19948  1.0000
  H   H54       1.0  0.56908  0.84563  0.14183  1.0000
  N   N5        1.0  0.57432  0.81161  0.19823  1.0000
  H   H55       1.0  0.57424  0.79723  0.19745  1.0000
  H   H56       1.0  0.57772  0.81942  0.14075  1.0000
  N   N6        1.0  0.57694  0.87446  0.36153  1.0000
  C   C55       1.0  0.25274  0.81362  0.35857  1.0000
  C   C56       1.0  0.26373  0.82310  0.27476  1.0000
  C   C57       1.0  0.28523  0.84390  0.27454  1.0000
  N   N7        1.0  0.25359  0.81181  0.19656  1.0000
  H   H57       1.0  0.23912  0.79760  0.19627  1.0000
  H   H58       1.0  0.26124  0.81604  0.13889  1.0000
  N   N8        1.0  0.29533  0.85505  0.19601  1.0000
  H   H59       1.0  0.30970  0.86937  0.19558  1.0000
  H   H60       1.0  0.28758  0.85082  0.13840  1.0000
  N   N9        1.0  0.23229  0.79441  0.35829  1.0000
  C   C58       1.0  0.78665  0.60106  0.35867  1.0000
  C   C59       1.0  0.79589  0.59938  0.27474  1.0000
  C   C60       1.0  0.81684  0.59898  0.27415  1.0000
  N   N10       1.0  0.78425  0.59779  0.19678  1.0000
  H   H61       1.0  0.76988  0.59773  0.19683  1.0000
  H   H62       1.0  0.78827  0.59408  0.13936  1.0000
  N   N11       1.0  0.82779  0.59996  0.19540  1.0000
  H   H63       1.0  0.84219  0.60008  0.19459  1.0000
  H   H64       1.0  0.82326  0.60320  0.13778  1.0000
  N   N12       1.0  0.76730  0.60206  0.35862  1.0000
  C   C61       1.0  0.50569  0.27752  0.36207  1.0000
  C   C62       1.0  0.50738  0.28864  0.27817  1.0000
  C   C63       1.0  0.50780  0.31000  0.27762  1.0000
  N   N13       1.0  0.50897  0.27876  0.20020  1.0000
  H   H65       1.0  0.50892  0.26440  0.20012  1.0000
  H   H66       1.0  0.51255  0.28654  0.14263  1.0000
  N   N14       1.0  0.50687  0.32017  0.19887  1.0000
  H   H67       1.0  0.50671  0.33443  0.19820  1.0000
  H   H68       1.0  0.50361  0.31253  0.14125  1.0000
  N   N15       1.0  0.50467  0.25717  0.36196  1.0000
  C   C64       1.0  0.82921  0.32009  0.35896  1.0000
  C   C65       1.0  0.81804  0.31075  0.27523  1.0000
  C   C66       1.0  0.79669  0.28980  0.27507  1.0000
  N   N16       1.0  0.82786  0.32230  0.19703  1.0000
  H   H69       1.0  0.84218  0.33666  0.19678  1.0000
  H   H70       1.0  0.81996  0.31820  0.13971  1.0000
  N   N17       1.0  0.78649  0.27875  0.19655  1.0000
  H   H71       1.0  0.77221  0.26436  0.19604  1.0000
  H   H72       1.0  0.79409  0.28321  0.13882  1.0000
  N   N18       1.0  0.84955  0.33944  0.35851  1.0000
  C   C67       1.0  0.02910  0.62382  0.35521  1.0000
  C   C68       1.0  0.05269  0.63551  0.35644  1.0000
  C   C69       1.0  0.06007  0.61959  0.35909  1.0000
  N   N19       1.0  0.04069  0.59891  0.35954  1.0000
  C   C70       1.0  0.02144  0.60045  0.35772  1.0000
  C   C71       1.0  0.99812  0.58283  0.35849  1.0000
  C   C72       1.0  0.99068  0.55910  0.36047  1.0000
  N   N20       1.0  0.00345  0.54884  0.35875  1.0000
  C   C73       1.0  0.99051  0.52583  0.36196  1.0000
  C   C74       1.0  0.96792  0.52103  0.36595  1.0000
  C   C75       1.0  0.96803  0.54145  0.36521  1.0000
  C   C76       1.0  0.99774  0.50937  0.36129  1.0000
  C   C77       1.0  0.02096  0.51482  0.35894  1.0000
  N   N21       1.0  0.04034  0.53550  0.35958  1.0000
  C   C78       1.0  0.05958  0.53395  0.35753  1.0000
  C   C79       1.0  0.05192  0.51059  0.35475  1.0000
  C   C80       1.0  0.02833  0.49890  0.35594  1.0000
  C   C81       1.0  0.08291  0.55157  0.35825  1.0000
  C   C82       1.0  0.09036  0.57529  0.36020  1.0000
  N   N22       1.0  0.07758  0.58556  0.35871  1.0000
  C   C83       1.0  0.09053  0.60857  0.36186  1.0000
  C   C84       1.0  0.11312  0.61335  0.36545  1.0000
  C   C85       1.0  0.11302  0.59293  0.36467  1.0000
  C   C86       1.0  0.08330  0.62503  0.36143  1.0000
  C   C87       1.0  0.10080  0.64852  0.36471  1.0000
  C   C88       1.0  0.11019  0.65900  0.44832  1.0000
  C   C89       1.0  0.12990  0.68074  0.45186  1.0000
  C   C90       1.0  0.14100  0.69280  0.37224  1.0000
  C   C91       1.0  0.16237  0.71386  0.37605  1.0000
  C   C92       1.0  0.20622  0.75507  0.37966  1.0000
  C   C93       1.0  0.20128  0.73649  0.43760  1.0000
  C   C94       1.0  0.17983  0.71642  0.43609  1.0000
  C   C95       1.0  0.10022  0.54528  0.35825  1.0000
  C   C96       1.0  0.10676  0.53904  0.43930  1.0000
  C   C97       1.0  0.12536  0.53515  0.44126  1.0000
  C   C98       1.0  0.13829  0.53760  0.36278  1.0000
  C   C99       1.0  0.15756  0.53412  0.36553  1.0000
  C   C100      1.0  0.15667  0.51560  0.41388  1.0000
  C   C101      1.0  0.17540  0.51194  0.41613  1.0000
  C   C102      1.0  0.19598  0.52672  0.37074  1.0000
  C   C103      1.0  0.98025  0.48587  0.36429  1.0000
  C   C104      1.0  0.94029  0.44143  0.37219  1.0000
  C   C105      1.0  0.95183  0.45320  0.45165  1.0000
  C   C106      1.0  0.97141  0.47503  0.44794  1.0000
  C   C107      1.0  0.91906  0.42022  0.37642  1.0000
  C   C108      1.0  0.90192  0.41719  0.43851  1.0000
  C   C109      1.0  0.88059  0.39697  0.44052  1.0000
  C   C110      1.0  0.87545  0.37875  0.38092  1.0000
  C   C111      1.0  0.98079  0.58910  0.35847  1.0000
  C   C112      1.0  0.97427  0.59509  0.43958  1.0000
  C   C113      1.0  0.95558  0.59883  0.44158  1.0000
  C   C114      1.0  0.94251  0.59642  0.36310  1.0000
  C   C115      1.0  0.92309  0.59966  0.36593  1.0000
  C   C116      1.0  0.88436  0.60655  0.37127  1.0000
  C   C117      1.0  0.90495  0.62140  0.41679  1.0000
  C   C118      1.0  0.92382  0.61797  0.41453  1.0000
  H   H73       1.0  0.90648  0.63504  0.45219  1.0000
  H   H74       1.0  0.93842  0.62944  0.44724  1.0000
  H   H75       1.0  0.95106  0.60250  0.50226  1.0000
  H   H76       1.0  0.98273  0.59618  0.49837  1.0000
  H   H77       1.0  0.01933  0.63142  0.35339  1.0000
  H   H78       1.0  0.06264  0.65287  0.35544  1.0000
  H   H79       1.0  0.04060  0.58472  0.36288  1.0000
  H   H80       1.0  0.04043  0.54968  0.36320  1.0000
  H   H81       1.0  0.95371  0.54286  0.36843  1.0000
  H   H82       1.0  0.95352  0.50537  0.36939  1.0000
  H   H83       1.0  0.97863  0.48336  0.50695  1.0000
  H   H84       1.0  0.94574  0.44617  0.51369  1.0000
  H   H85       1.0  0.01838  0.48154  0.35462  1.0000
  H   H86       1.0  0.06169  0.50299  0.35257  1.0000
  H   H87       1.0  0.12754  0.62901  0.36868  1.0000
  H   H88       1.0  0.12734  0.59152  0.36766  1.0000
  H   H89       1.0  0.09838  0.53789  0.49808  1.0000
  H   H90       1.0  0.12989  0.53129  0.50190  1.0000
  H   H91       1.0  0.17376  0.49816  0.45141  1.0000
  H   H92       1.0  0.14207  0.50418  0.44654  1.0000
  H   H93       1.0  0.17742  0.70327  0.47753  1.0000
  H   H94       1.0  0.21343  0.73728  0.48122  1.0000
  H   H95       1.0  0.13639  0.68749  0.51384  1.0000
  H   H96       1.0  0.10331  0.65044  0.50733  1.0000
  H   H97       1.0  0.90448  0.43008  0.48127  1.0000
  H   H98       1.0  0.86867  0.39584  0.48567  1.0000
  C   C119      1.0  0.22805  0.77421  0.38017  1.0000
  C   C120      1.0  0.21402  0.52222  0.37279  1.0000
  C   C121      1.0  0.85371  0.35948  0.38193  1.0000
  C   C122      1.0  0.86618  0.61082  0.37327  1.0000
  H   H99       1.0  0.24101  0.77219  0.40032  1.0000
  H   H100      1.0  0.86941  0.62640  0.38998  1.0000
  H   H101      1.0  0.84078  0.36127  0.40365  1.0000
  H   H102      1.0  0.21066  0.50658  0.38971  1.0000
  C   C123      1.0  0.48293  0.49721  0.35816  1.0000
  C   C124      1.0  0.47124  0.50911  0.35927  1.0000
  C   C125      1.0  0.48716  0.53241  0.36192  1.0000
  N   N23       1.0  0.50784  0.53371  0.36249  1.0000
  C   C126      1.0  0.50630  0.51292  0.36071  1.0000
  C   C127      1.0  0.52392  0.50722  0.36155  1.0000
  C   C128      1.0  0.54765  0.52350  0.36345  1.0000
  N   N24       1.0  0.55791  0.54654  0.36167  1.0000
  C   C129      1.0  0.58093  0.55661  0.36478  1.0000
  C   C130      1.0  0.58572  0.53881  0.36870  1.0000
  C   C131      1.0  0.56530  0.51849  0.36817  1.0000
  C   C132      1.0  0.59738  0.58029  0.36406  1.0000
  C   C133      1.0  0.59193  0.59808  0.36188  1.0000
  N   N25       1.0  0.57125  0.59677  0.36261  1.0000
  C   C134      1.0  0.57279  0.61756  0.36066  1.0000
  C   C135      1.0  0.59615  0.63327  0.35795  1.0000
  C   C136      1.0  0.60784  0.62137  0.35900  1.0000
  C   C137      1.0  0.55518  0.62327  0.36135  1.0000
  C   C138      1.0  0.53145  0.60699  0.36322  1.0000
  N   N26       1.0  0.52119  0.58395  0.36168  1.0000
  C   C139      1.0  0.49817  0.57387  0.36467  1.0000
  C   C140      1.0  0.49338  0.59167  0.36819  1.0000
  C   C141      1.0  0.51380  0.61199  0.36756  1.0000
  C   C142      1.0  0.48172  0.55019  0.36416  1.0000
  C   C143      1.0  0.45822  0.54419  0.36712  1.0000
  C   C144      1.0  0.44769  0.54293  0.45062  1.0000
  C   C145      1.0  0.42595  0.54090  0.45385  1.0000
  C   C146      1.0  0.41393  0.54007  0.37407  1.0000
  C   C147      1.0  0.39286  0.54038  0.37755  1.0000
  C   C148      1.0  0.35167  0.54304  0.38041  1.0000
  C   C149      1.0  0.37020  0.55654  0.43854  1.0000
  C   C150      1.0  0.39028  0.55518  0.43735  1.0000
  C   C151      1.0  0.56146  0.64687  0.36149  1.0000
  C   C152      1.0  0.56766  0.65943  0.44260  1.0000
  C   C153      1.0  0.57155  0.68192  0.44465  1.0000
  C   C154      1.0  0.56915  0.69260  0.36617  1.0000
  C   C155      1.0  0.57263  0.71535  0.36899  1.0000
  C   C156      1.0  0.59112  0.73285  0.41752  1.0000
  C   C157      1.0  0.59479  0.75525  0.41978  1.0000
  C   C158      1.0  0.58002  0.76116  0.37432  1.0000
  C   C159      1.0  0.62088  0.58630  0.36683  1.0000
  C   C160      1.0  0.66535  0.59081  0.37407  1.0000
  C   C161      1.0  0.65363  0.59040  0.45370  1.0000
  C   C162      1.0  0.63179  0.58816  0.45032  1.0000
  C   C163      1.0  0.68655  0.59077  0.37796  1.0000
  C   C164      1.0  0.68964  0.57655  0.43996  1.0000
  C   C165      1.0  0.70986  0.57543  0.44162  1.0000
  C   C166      1.0  0.72802  0.58862  0.38177  1.0000
  C   C167      1.0  0.51766  0.48362  0.36162  1.0000
  C   C168      1.0  0.51167  0.47095  0.44276  1.0000
  C   C169      1.0  0.50795  0.44852  0.44485  1.0000
  C   C170      1.0  0.51034  0.43801  0.36639  1.0000
  C   C171      1.0  0.50710  0.41535  0.36929  1.0000
  C   C172      1.0  0.50021  0.36972  0.37471  1.0000
  C   C173      1.0  0.48536  0.37537  0.42020  1.0000
  C   C174      1.0  0.48879  0.39767  0.41787  1.0000
  H   H103      1.0  0.47171  0.36318  0.45561  1.0000
  H   H104      1.0  0.47732  0.40073  0.45059  1.0000
  H   H105      1.0  0.50426  0.44020  0.50554  1.0000
  H   H106      1.0  0.51058  0.47821  0.50154  1.0000
  H   H107      1.0  0.47533  0.47984  0.35635  1.0000
  H   H108      1.0  0.45388  0.50170  0.35820  1.0000
  H   H109      1.0  0.52203  0.54780  0.36585  1.0000
  H   H110      1.0  0.55707  0.58267  0.36595  1.0000
  H   H111      1.0  0.56390  0.50276  0.37141  1.0000
  H   H112      1.0  0.60139  0.54006  0.37219  1.0000
  H   H113      1.0  0.62350  0.58691  0.50945  1.0000
  H   H114      1.0  0.66072  0.59124  0.51564  1.0000
  H   H115      1.0  0.62520  0.62878  0.35766  1.0000
  H   H116      1.0  0.60375  0.65065  0.35581  1.0000
  H   H117      1.0  0.47773  0.59043  0.37128  1.0000
  H   H118      1.0  0.51522  0.62772  0.37048  1.0000
  H   H119      1.0  0.56881  0.65207  0.50135  1.0000
  H   H120      1.0  0.57542  0.69017  0.50530  1.0000
  H   H121      1.0  0.60856  0.76730  0.45515  1.0000
  H   H122      1.0  0.60255  0.72961  0.45016  1.0000
  H   H123      1.0  0.40339  0.56582  0.47891  1.0000
  H   H124      1.0  0.36939  0.56783  0.48198  1.0000
  H   H125      1.0  0.41917  0.54053  0.51573  1.0000
  H   H126      1.0  0.45624  0.54455  0.50972  1.0000
  H   H127      1.0  0.67680  0.56615  0.48292  1.0000
  H   H128      1.0  0.71103  0.56456  0.48673  1.0000
  C   C175      1.0  0.33253  0.54574  0.38055  1.0000
  C   C176      1.0  0.58452  0.78368  0.37642  1.0000
  C   C177      1.0  0.74729  0.58614  0.38242  1.0000
  C   C178      1.0  0.49594  0.34727  0.37674  1.0000
  H   H129      1.0  0.33453  0.56066  0.40069  1.0000
  H   H130      1.0  0.48035  0.33488  0.39330  1.0000
  H   H131      1.0  0.74553  0.57139  0.40415  1.0000
  H   H132      1.0  0.60015  0.79592  0.39353  1.0000
  C   C179      1.0  0.60953  0.07764  0.35970  1.0000
  C   C180      1.0  0.59763  0.05405  0.36101  1.0000
  C   C181      1.0  0.57434  0.04667  0.36366  1.0000
  N   N27       1.0  0.57304  0.06605  0.36412  1.0000
  C   C182      1.0  0.59382  0.08530  0.36215  1.0000
  C   C183      1.0  0.59952  0.10862  0.36276  1.0000
  C   C184      1.0  0.58324  0.11606  0.36481  1.0000
  N   N28       1.0  0.56020  0.10328  0.36321  1.0000
  C   C185      1.0  0.55013  0.11623  0.36650  1.0000
  C   C186      1.0  0.56794  0.13881  0.37040  1.0000
  C   C187      1.0  0.58825  0.13871  0.36952  1.0000
  C   C188      1.0  0.52645  0.10899  0.36590  1.0000
  C   C189      1.0  0.50867  0.08577  0.36350  1.0000
  N   N29       1.0  0.50997  0.06639  0.36413  1.0000
  C   C190      1.0  0.48918  0.04715  0.36198  1.0000
  C   C191      1.0  0.47347  0.05481  0.35916  1.0000
  C   C192      1.0  0.48537  0.07840  0.36045  1.0000
  C   C193      1.0  0.48348  0.02383  0.36264  1.0000
  C   C194      1.0  0.49976  0.01638  0.36467  1.0000
  N   N30       1.0  0.52280  0.02916  0.36327  1.0000
  C   C195      1.0  0.53287  0.01621  0.36638  1.0000
  C   C196      1.0  0.51506  0.99361  0.36989  1.0000
  C   C197      1.0  0.49475  0.99372  0.36905  1.0000
  C   C198      1.0  0.55655  0.02344  0.36596  1.0000
  C   C199      1.0  0.56255  0.00593  0.36914  1.0000
  C   C200      1.0  0.56382  0.99654  0.45274  1.0000
  C   C201      1.0  0.56587  0.97684  0.45621  1.0000
  C   C202      1.0  0.56668  0.96576  0.37654  1.0000
  C   C203      1.0  0.56639  0.94439  0.38028  1.0000
  C   C204      1.0  0.56376  0.90054  0.38360  1.0000
  C   C205      1.0  0.55026  0.90546  0.44167  1.0000
  C   C206      1.0  0.55162  0.92691  0.44027  1.0000
  C   C207      1.0  0.45988  0.00651  0.36236  1.0000
  C   C208      1.0  0.44722  0.99991  0.44325  1.0000
  C   C209      1.0  0.42472  0.98132  0.44486  1.0000
  C   C210      1.0  0.41414  0.96845  0.36619  1.0000
  C   C211      1.0  0.39139  0.94918  0.36857  1.0000
  C   C212      1.0  0.37382  0.95003  0.41678  1.0000
  C   C213      1.0  0.35143  0.93130  0.41863  1.0000
  C   C214      1.0  0.34557  0.91075  0.37300  1.0000
  C   C215      1.0  0.52044  0.12648  0.36888  1.0000
  C   C216      1.0  0.51595  0.16643  0.37656  1.0000
  C   C217      1.0  0.51639  0.15493  0.45608  1.0000
  C   C218      1.0  0.51864  0.13536  0.45247  1.0000
  C   C219      1.0  0.51597  0.18766  0.38065  1.0000
  C   C220      1.0  0.53020  0.20482  0.44269  1.0000
  C   C221      1.0  0.53132  0.22616  0.44446  1.0000
  C   C222      1.0  0.51812  0.23127  0.38473  1.0000
  C   C223      1.0  0.62312  0.12595  0.36249  1.0000
  C   C224      1.0  0.63587  0.13252  0.44344  1.0000
  C   C225      1.0  0.65830  0.15123  0.44512  1.0000
  C   C226      1.0  0.66873  0.16424  0.36646  1.0000
  C   C227      1.0  0.69139  0.18366  0.36895  1.0000
  C   C228      1.0  0.73703  0.22240  0.37356  1.0000
  C   C229      1.0  0.73142  0.20185  0.41930  1.0000
  C   C230      1.0  0.70911  0.18297  0.41736  1.0000
  H   H133      1.0  0.74364  0.20035  0.45461  1.0000
  H   H134      1.0  0.70609  0.16841  0.45026  1.0000
  H   H135      1.0  0.66667  0.15580  0.50570  1.0000
  H   H136      1.0  0.62866  0.12411  0.50237  1.0000
  H   H137      1.0  0.62690  0.08742  0.35775  1.0000
  H   H138      1.0  0.60504  0.04410  0.35997  1.0000
  H   H139      1.0  0.55894  0.06613  0.36724  1.0000
  H   H140      1.0  0.52407  0.06630  0.36779  1.0000
  H   H141      1.0  0.60398  0.15303  0.37283  1.0000
  H   H142      1.0  0.56669  0.15322  0.37399  1.0000
  H   H143      1.0  0.51989  0.12815  0.51152  1.0000
  H   H144      1.0  0.51556  0.16103  0.51808  1.0000
  H   H145      1.0  0.47796  0.08835  0.35917  1.0000
  H   H146      1.0  0.45610  0.04504  0.35698  1.0000
  H   H147      1.0  0.51631  0.97919  0.37300  1.0000
  H   H148      1.0  0.47902  0.97939  0.37190  1.0000
  H   H149      1.0  0.45452  0.00825  0.50216  1.0000
  H   H150      1.0  0.41641  0.97674  0.50539  1.0000
  H   H151      1.0  0.33933  0.93291  0.45381  1.0000
  H   H152      1.0  0.37704  0.96460  0.44958  1.0000
  H   H153      1.0  0.54098  0.92931  0.48180  1.0000
  H   H154      1.0  0.53900  0.89330  0.48525  1.0000
  H   H155      1.0  0.56624  0.97032  0.51816  1.0000
  H   H156      1.0  0.56222  0.00338  0.51176  1.0000
  H   H157      1.0  0.54064  0.20229  0.48547  1.0000
  H   H158      1.0  0.54222  0.23811  0.48951  1.0000
  C   C231      1.0  0.56106  0.87870  0.38391  1.0000
  C   C232      1.0  0.32304  0.89272  0.37465  1.0000
  C   C233      1.0  0.52062  0.25302  0.38541  1.0000
  C   C234      1.0  0.75948  0.24058  0.37523  1.0000
  H   H159      1.0  0.54615  0.86575  0.40430  1.0000
  H   H160      1.0  0.77187  0.23737  0.39196  1.0000
  H   H161      1.0  0.53540  0.26597  0.40689  1.0000
  H   H162      1.0  0.31078  0.89607  0.39149  1.0000
  C   C235      1.0  0.25330  0.53481  0.35706  1.0000
  C   C236      1.0  0.26347  0.53441  0.44097  1.0000
  C   C237      1.0  0.28238  0.53053  0.44142  1.0000
  N   N31       1.0  0.29010  0.52590  0.51972  1.0000
  H   H163      1.0  0.28173  0.52264  0.57572  1.0000
  H   H164      1.0  0.30209  0.52201  0.51992  1.0000
  N   N32       1.0  0.25531  0.53826  0.51922  1.0000
  H   H165      1.0  0.24321  0.54199  0.51934  1.0000
  H   H166      1.0  0.26333  0.54091  0.57607  1.0000
  N   N33       1.0  0.23487  0.53738  0.35573  1.0000
  C   C238      1.0  0.57195  0.81042  0.36038  1.0000
  C   C239      1.0  0.57231  0.82081  0.44426  1.0000
  C   C240      1.0  0.57622  0.84360  0.44468  1.0000
  N   N34       1.0  0.58083  0.85577  0.52302  1.0000
  H   H167      1.0  0.58426  0.85057  0.57869  1.0000
  H   H168      1.0  0.58488  0.87170  0.52292  1.0000
  N   N35       1.0  0.56839  0.80861  0.52252  1.0000
  H   H169      1.0  0.56464  0.79277  0.52265  1.0000
  H   H170      1.0  0.56570  0.81387  0.57928  1.0000
  N   N36       1.0  0.56938  0.78942  0.35910  1.0000
  C   C241      1.0  0.29632  0.85345  0.35821  1.0000
  C   C242      1.0  0.28584  0.84320  0.44191  1.0000
  C   C243      1.0  0.26306  0.82430  0.44194  1.0000
  N   N37       1.0  0.25080  0.81651  0.52003  1.0000
  H   H171      1.0  0.25597  0.82482  0.57616  1.0000
  H   H172      1.0  0.23492  0.80451  0.51994  1.0000
  N   N38       1.0  0.29795  0.85129  0.52038  1.0000
  H   H173      1.0  0.31378  0.86339  0.52078  1.0000
  H   H174      1.0  0.29264  0.84322  0.57709  1.0000
  N   N39       1.0  0.31733  0.87189  0.35730  1.0000
  C   C244      1.0  0.82678  0.59784  0.35766  1.0000
  C   C245      1.0  0.81676  0.59821  0.44152  1.0000
  C   C246      1.0  0.79771  0.60187  0.44180  1.0000
  N   N40       1.0  0.79015  0.60653  0.51991  1.0000
  H   H175      1.0  0.79887  0.61015  0.57536  1.0000
  H   H176      1.0  0.77818  0.61044  0.51963  1.0000
  N   N41       1.0  0.82519  0.59454  0.51996  1.0000
  H   H177      1.0  0.83739  0.59094  0.52025  1.0000
  H   H178      1.0  0.81727  0.59185  0.57684  1.0000
  N   N42       1.0  0.84535  0.59551  0.35642  1.0000
  C   C247      1.0  0.50891  0.32087  0.36117  1.0000
  C   C248      1.0  0.50852  0.31028  0.44502  1.0000
  C   C249      1.0  0.50488  0.28758  0.44522  1.0000
  N   N43       1.0  0.50023  0.27517  0.52326  1.0000
  H   H179      1.0  0.49679  0.28016  0.57910  1.0000
  H   H180      1.0  0.49648  0.25933  0.52321  1.0000
  N   N44       1.0  0.51215  0.32220  0.52348  1.0000
  H   H181      1.0  0.51573  0.33798  0.52381  1.0000
  H   H182      1.0  0.51480  0.31683  0.58040  1.0000
  N   N45       1.0  0.51125  0.34178  0.35998  1.0000
  C   C250      1.0  0.78586  0.27997  0.35879  1.0000
  C   C251      1.0  0.79650  0.29009  0.44244  1.0000
  C   C252      1.0  0.81920  0.30913  0.44230  1.0000
  N   N46       1.0  0.83165  0.31679  0.52025  1.0000
  H   H183      1.0  0.82672  0.30814  0.57586  1.0000
  H   H184      1.0  0.84754  0.32876  0.51969  1.0000
  N   N47       1.0  0.78462  0.28175  0.52106  1.0000
  H   H185      1.0  0.76883  0.26956  0.52162  1.0000
  H   H186      1.0  0.79002  0.28974  0.57779  1.0000
  N   N48       1.0  0.76495  0.26139  0.35795  1.0000
