data_image0
_chemical_formula_structural       CH2CHC3H2C3HCH3C3HCH3C2H2C24H15C24H15C3HCH3C3HCH3CH
_chemical_formula_sum              "C72 H54"
_cell_length_a       30.0807
_cell_length_b       30.0806
_cell_length_c       14.9165
_cell_angle_alpha    90
_cell_angle_beta     90
_cell_angle_gamma    120

_space_group_name_H-M_alt    "P 1"
_space_group_IT_number       1

loop_
  _space_group_symop_operation_xyz
  'x, y, z'

loop_
  _atom_site_type_symbol
  _atom_site_label
  _atom_site_symmetry_multiplicity
  _atom_site_fract_x
  _atom_site_fract_y
  _atom_site_fract_z
  _atom_site_occupancy
  C   C1        1.0  0.03129  0.51635  0.25621  1.0000
  H   H1        1.0  0.04415  0.55226  0.12883  1.0000
  H   H2        1.0  0.04415  0.49329  0.12883  1.0000
  C   C2        1.0  0.03105  0.51623  0.42187  1.0000
  H   H3        1.0  0.03118  0.51629  0.56694  1.0000
  C   C3        1.0  0.05608  0.52874  0.16609  1.0000
  C   C4        1.0  0.05862  0.53001  0.33917  1.0000
  C   C5        1.0  0.05773  0.52957  0.51029  1.0000
  H   H4        1.0  0.08185  0.57114  0.51614  1.0000
  H   H5        1.0  0.08184  0.51210  0.51614  1.0000
  C   C6        1.0  0.53158  0.47542  0.33879  1.0000
  C   C7        1.0  0.49065  0.51635  0.25621  1.0000
  C   C8        1.0  0.51780  0.48919  0.25762  1.0000
  H   H6        1.0  0.52778  0.47922  0.19836  1.0000
  C   C9        1.0  0.47826  0.52874  0.16609  1.0000
  H   H7        1.0  0.45737  0.54963  0.16846  1.0000
  H   H8        1.0  0.45474  0.49329  0.12883  1.0000
  H   H9        1.0  0.51370  0.55226  0.12883  1.0000
  C   C10       1.0  0.53158  0.05756  0.33879  1.0000
  C   C11       1.0  0.49065  0.97570  0.25621  1.0000
  C   C12       1.0  0.51780  0.03000  0.25762  1.0000
  H   H10       1.0  0.52778  0.04995  0.19836  1.0000
  C   C13       1.0  0.47826  0.95091  0.16610  1.0000
  H   H11       1.0  0.45737  0.90914  0.16846  1.0000
  H   H12       1.0  0.51370  0.96285  0.12884  1.0000
  H   H13       1.0  0.45474  0.96285  0.12884  1.0000
  C   C14       1.0  0.94943  0.47542  0.33879  1.0000
  C   C15       1.0  0.97699  0.48919  0.25762  1.0000
  H   H14       1.0  0.95704  0.47922  0.19836  1.0000
  H   H15       1.0  0.09786  0.54963  0.16846  1.0000
  C   C16       1.0  0.28144  0.64142  0.33952  1.0000
  C   C17       1.0  0.31107  0.61655  0.33950  1.0000
  C   C18       1.0  0.36557  0.64142  0.33952  1.0000
  C   C19       1.0  0.39045  0.69592  0.33950  1.0000
  C   C20       1.0  0.36557  0.72555  0.33952  1.0000
  C   C21       1.0  0.31107  0.69592  0.33950  1.0000
  C   C22       1.0  0.39388  0.61311  0.33968  1.0000
  C   C23       1.0  0.36890  0.55832  0.33974  1.0000
  C   C24       1.0  0.39570  0.53107  0.33983  1.0000
  C   C25       1.0  0.44966  0.55734  0.34003  1.0000
  C   C26       1.0  0.47592  0.61130  0.33983  1.0000
  C   C27       1.0  0.44867  0.63809  0.33974  1.0000
  C   C28       1.0  0.22483  0.61311  0.33968  1.0000
  C   C29       1.0  0.19502  0.55832  0.33974  1.0000
  C   C30       1.0  0.14097  0.53107  0.33983  1.0000
  C   C31       1.0  0.11327  0.55734  0.34004  1.0000
  C   C32       1.0  0.14097  0.61130  0.33983  1.0000
  C   C33       1.0  0.19502  0.63809  0.33974  1.0000
  C   C34       1.0  0.39388  0.78216  0.33968  1.0000
  C   C35       1.0  0.36890  0.81198  0.33973  1.0000
  C   C36       1.0  0.39570  0.86603  0.33983  1.0000
  C   C37       1.0  0.44966  0.89372  0.34004  1.0000
  C   C38       1.0  0.47592  0.86603  0.33983  1.0000
  C   C39       1.0  0.44867  0.81198  0.33973  1.0000
  H   H16       1.0  0.12189  0.49176  0.33963  1.0000
  H   H17       1.0  0.21144  0.53591  0.33956  1.0000
  H   H18       1.0  0.12189  0.63153  0.33964  1.0000
  H   H19       1.0  0.21144  0.67693  0.33957  1.0000
  H   H20       1.0  0.33007  0.79556  0.33956  1.0000
  H   H21       1.0  0.37546  0.88510  0.33963  1.0000
  H   H22       1.0  0.47108  0.79556  0.33956  1.0000
  H   H23       1.0  0.51524  0.88510  0.33963  1.0000
  H   H24       1.0  0.47108  0.67692  0.33956  1.0000
  H   H25       1.0  0.51524  0.63153  0.33963  1.0000
  H   H26       1.0  0.37546  0.49176  0.33964  1.0000
  H   H27       1.0  0.33007  0.53591  0.33957  1.0000
  H   H28       1.0  0.29184  0.57808  0.33954  1.0000
  H   H29       1.0  0.29183  0.71516  0.33954  1.0000
  H   H30       1.0  0.42892  0.71516  0.33954  1.0000
  C   C40       1.0  0.72695  0.36417  0.33869  1.0000
  C   C41       1.0  0.69732  0.38905  0.33871  1.0000
  C   C42       1.0  0.64282  0.36417  0.33869  1.0000
  C   C43       1.0  0.61795  0.30967  0.33871  1.0000
  C   C44       1.0  0.64282  0.28005  0.33869  1.0000
  C   C45       1.0  0.69732  0.30967  0.33871  1.0000
  C   C46       1.0  0.61452  0.39247  0.33862  1.0000
  C   C47       1.0  0.63950  0.44727  0.33858  1.0000
  C   C48       1.0  0.61271  0.47452  0.33854  1.0000
  C   C49       1.0  0.55876  0.44824  0.33854  1.0000
  C   C50       1.0  0.53248  0.39429  0.33855  1.0000
  C   C51       1.0  0.55973  0.36750  0.33858  1.0000
  C   C52       1.0  0.78355  0.39247  0.33862  1.0000
  C   C53       1.0  0.81337  0.44727  0.33858  1.0000
  C   C54       1.0  0.86742  0.47452  0.33854  1.0000
  C   C55       1.0  0.89507  0.44824  0.33854  1.0000
  C   C56       1.0  0.86741  0.39429  0.33854  1.0000
  C   C57       1.0  0.81337  0.36750  0.33858  1.0000
  C   C58       1.0  0.61452  0.22345  0.33862  1.0000
  C   C59       1.0  0.63950  0.19363  0.33858  1.0000
  C   C60       1.0  0.61270  0.13958  0.33854  1.0000
  C   C61       1.0  0.55876  0.11192  0.33854  1.0000
  C   C62       1.0  0.53248  0.13958  0.33854  1.0000
  C   C63       1.0  0.55973  0.19363  0.33858  1.0000
  H   H31       1.0  0.88648  0.51384  0.33858  1.0000
  H   H32       1.0  0.79695  0.46968  0.33860  1.0000
  H   H33       1.0  0.88648  0.37404  0.33858  1.0000
  H   H34       1.0  0.79695  0.32866  0.33860  1.0000
  H   H35       1.0  0.67834  0.21005  0.33860  1.0000
  H   H36       1.0  0.63295  0.12052  0.33858  1.0000
  H   H37       1.0  0.53732  0.21005  0.33860  1.0000
  H   H38       1.0  0.49316  0.12052  0.33858  1.0000
  H   H39       1.0  0.53732  0.32866  0.33860  1.0000
  H   H40       1.0  0.49316  0.37404  0.33858  1.0000
  H   H41       1.0  0.63295  0.51384  0.33858  1.0000
  H   H42       1.0  0.67834  0.46968  0.33860  1.0000
  H   H43       1.0  0.71656  0.42752  0.33873  1.0000
  H   H44       1.0  0.71656  0.29044  0.33873  1.0000
  H   H45       1.0  0.57948  0.29044  0.33873  1.0000
  C   C64       1.0  0.51792  0.48907  0.42021  1.0000
  C   C65       1.0  0.49077  0.51623  0.42187  1.0000
  C   C66       1.0  0.47699  0.53001  0.33917  1.0000
  H   H46       1.0  0.52801  0.47899  0.47917  1.0000
  C   C67       1.0  0.47743  0.52957  0.51029  1.0000
  H   H47       1.0  0.49071  0.51629  0.56694  1.0000
  H   H48       1.0  0.43586  0.51210  0.51614  1.0000
  H   H49       1.0  0.49489  0.57114  0.51614  1.0000
  C   C68       1.0  0.51793  0.03025  0.42021  1.0000
  C   C69       1.0  0.49077  0.97595  0.42188  1.0000
  C   C70       1.0  0.47699  0.94838  0.33917  1.0000
  H   H50       1.0  0.52801  0.05042  0.47917  1.0000
  C   C71       1.0  0.47743  0.94927  0.51030  1.0000
  H   H51       1.0  0.49071  0.97582  0.56694  1.0000
  H   H52       1.0  0.49489  0.92515  0.51615  1.0000
  H   H53       1.0  0.43586  0.92515  0.51615  1.0000
  C   C72       1.0  0.97675  0.48907  0.42021  1.0000
  H   H54       1.0  0.95658  0.47899  0.47917  1.0000
