data_image0
_chemical_formula_structural       NC2HCH2NC2HCH2NC2HCH2C24H15NHNHNHC24H15NHNHNHCNC2OH3CH2CNC2OH3CH2CNC2OH3CH2
_chemical_formula_sum              "N12 C69 H60 O3"
_cell_length_a       36.8187
_cell_length_b       36.8186
_cell_length_c       15.0226
_cell_angle_alpha    90
_cell_angle_beta     90
_cell_angle_gamma    120

_space_group_name_H-M_alt    "P 1"
_space_group_IT_number       1

loop_
  _space_group_symop_operation_xyz
  'x, y, z'

loop_
  _atom_site_type_symbol
  _atom_site_label
  _atom_site_symmetry_multiplicity
  _atom_site_fract_x
  _atom_site_fract_y
  _atom_site_fract_z
  _atom_site_occupancy
  N   N1        1.0  0.50058  0.47335  0.27698  1.0000
  C   C1        1.0  0.48364  0.49699  0.25177  1.0000
  C   C2        1.0  0.48239  0.52508  0.31362  1.0000
  H   H1        1.0  0.47220  0.49422  0.18864  1.0000
  C   C3        1.0  0.46376  0.55130  0.29004  1.0000
  H   H2        1.0  0.47990  0.57014  0.23142  1.0000
  H   H3        1.0  0.43092  0.53005  0.27242  1.0000
  N   N2        1.0  0.52478  0.02686  0.27704  1.0000
  C   C4        1.0  0.50114  0.98628  0.25182  1.0000
  C   C5        1.0  0.47305  0.95694  0.31365  1.0000
  H   H4        1.0  0.50394  0.97761  0.18871  1.0000
  C   C6        1.0  0.44683  0.91209  0.29005  1.0000
  H   H5        1.0  0.42800  0.90939  0.23141  1.0000
  H   H6        1.0  0.46808  0.90049  0.27246  1.0000
  N   N3        1.0  0.97127  0.49754  0.27702  1.0000
  C   C7        1.0  0.01186  0.51449  0.25182  1.0000
  C   C8        1.0  0.04119  0.51575  0.31367  1.0000
  H   H7        1.0  0.02053  0.52595  0.18870  1.0000
  C   C9        1.0  0.08604  0.53439  0.29009  1.0000
  H   H8        1.0  0.08875  0.51825  0.23147  1.0000
  H   H9        1.0  0.09764  0.56723  0.27248  1.0000
  C   C10       1.0  0.34979  0.71027  0.33345  1.0000
  C   C11       1.0  0.37590  0.69229  0.33326  1.0000
  C   C12       1.0  0.35899  0.64835  0.33350  1.0000
  C   C13       1.0  0.31490  0.62224  0.33328  1.0000
  C   C14       1.0  0.28786  0.63914  0.33346  1.0000
  C   C15       1.0  0.30585  0.68324  0.33324  1.0000
  C   C16       1.0  0.38581  0.63091  0.33910  1.0000
  C   C17       1.0  0.42055  0.64429  0.28124  1.0000
  C   C18       1.0  0.44735  0.62747  0.28825  1.0000
  C   C19       1.0  0.44014  0.59709  0.35379  1.0000
  C   C20       1.0  0.40592  0.58397  0.41223  1.0000
  C   C21       1.0  0.37894  0.60052  0.40472  1.0000
  C   C22       1.0  0.36722  0.75452  0.33906  1.0000
  C   C23       1.0  0.39760  0.77805  0.40470  1.0000
  C   C24       1.0  0.41413  0.82157  0.41222  1.0000
  C   C25       1.0  0.40103  0.84267  0.35377  1.0000
  C   C26       1.0  0.37066  0.81951  0.28821  1.0000
  C   C27       1.0  0.35385  0.77589  0.28118  1.0000
  C   C28       1.0  0.24361  0.61232  0.33910  1.0000
  C   C29       1.0  0.22010  0.61919  0.40474  1.0000
  C   C30       1.0  0.17657  0.59223  0.41224  1.0000
  C   C31       1.0  0.15546  0.55801  0.35383  1.0000
  C   C32       1.0  0.17861  0.55077  0.28829  1.0000
  C   C33       1.0  0.22224  0.57757  0.28128  1.0000
  H   H10       1.0  0.43592  0.83786  0.46045  1.0000
  H   H11       1.0  0.40734  0.76356  0.44901  1.0000
  H   H12       1.0  0.36063  0.83434  0.24560  1.0000
  H   H13       1.0  0.33209  0.75994  0.23267  1.0000
  H   H14       1.0  0.23458  0.64346  0.44897  1.0000
  H   H15       1.0  0.16028  0.59774  0.46044  1.0000
  H   H16       1.0  0.23819  0.57176  0.23276  1.0000
  H   H17       1.0  0.16378  0.52590  0.24572  1.0000
  H   H18       1.0  0.35471  0.59077  0.44902  1.0000
  H   H19       1.0  0.40042  0.56218  0.46044  1.0000
  H   H20       1.0  0.47222  0.63751  0.24566  1.0000
  H   H21       1.0  0.42637  0.66606  0.23274  1.0000
  H   H22       1.0  0.40779  0.71155  0.33506  1.0000
  H   H23       1.0  0.28658  0.69586  0.33503  1.0000
  H   H24       1.0  0.30227  0.59035  0.33509  1.0000
  N   N4        1.0  0.46604  0.57922  0.36388  1.0000
  H   H25       1.0  0.49648  0.60269  0.37364  1.0000
  N   N5        1.0  0.11169  0.53211  0.36394  1.0000
  H   H26       1.0  0.10472  0.50167  0.37370  1.0000
  N   N6        1.0  0.41889  0.88644  0.36387  1.0000
  H   H27       1.0  0.39542  0.89341  0.37360  1.0000
  C   C34       1.0  0.64769  0.28817  0.32331  1.0000
  C   C35       1.0  0.62184  0.30645  0.32346  1.0000
  C   C36       1.0  0.63897  0.35043  0.32327  1.0000
  C   C37       1.0  0.68310  0.37628  0.32341  1.0000
  C   C38       1.0  0.70995  0.35915  0.32328  1.0000
  C   C39       1.0  0.69167  0.31502  0.32346  1.0000
  C   C40       1.0  0.61237  0.36818  0.31958  1.0000
  C   C41       1.0  0.57752  0.35423  0.37740  1.0000
  C   C42       1.0  0.55105  0.37150  0.37279  1.0000
  C   C43       1.0  0.55875  0.40304  0.30985  1.0000
  C   C44       1.0  0.59309  0.41681  0.25151  1.0000
  C   C45       1.0  0.61968  0.39972  0.25652  1.0000
  C   C46       1.0  0.62993  0.24380  0.31963  1.0000
  C   C47       1.0  0.59838  0.21958  0.25659  1.0000
  C   C48       1.0  0.58129  0.17590  0.25159  1.0000
  C   C49       1.0  0.59507  0.15534  0.30991  1.0000
  C   C50       1.0  0.62662  0.17918  0.37283  1.0000
  C   C51       1.0  0.64389  0.22292  0.37744  1.0000
  C   C52       1.0  0.75431  0.38575  0.31958  1.0000
  C   C53       1.0  0.77854  0.37841  0.25656  1.0000
  C   C54       1.0  0.82222  0.40499  0.25156  1.0000
  C   C55       1.0  0.84279  0.43934  0.30986  1.0000
  C   C56       1.0  0.81895  0.44707  0.37275  1.0000
  C   C57       1.0  0.77521  0.42060  0.37738  1.0000
  H   H28       1.0  0.55864  0.15910  0.20524  1.0000
  H   H29       1.0  0.58807  0.23362  0.21245  1.0000
  H   H30       1.0  0.63715  0.16476  0.41532  1.0000
  H   H31       1.0  0.66640  0.23932  0.42435  1.0000
  H   H32       1.0  0.76449  0.35404  0.21244  1.0000
  H   H33       1.0  0.83902  0.39913  0.20523  1.0000
  H   H34       1.0  0.75881  0.42673  0.42425  1.0000
  H   H35       1.0  0.83337  0.47203  0.41523  1.0000
  H   H36       1.0  0.64404  0.41004  0.21238  1.0000
  H   H37       1.0  0.59894  0.43946  0.20516  1.0000
  H   H38       1.0  0.52611  0.36098  0.41529  1.0000
  H   H39       1.0  0.57142  0.33173  0.42433  1.0000
  H   H40       1.0  0.58992  0.28735  0.32227  1.0000
  H   H41       1.0  0.71077  0.30220  0.32228  1.0000
  H   H42       1.0  0.69592  0.40820  0.32222  1.0000
  N   N7        1.0  0.53315  0.42136  0.30232  1.0000
  H   H43       1.0  0.50271  0.39820  0.29111  1.0000
  N   N8        1.0  0.88672  0.46495  0.30232  1.0000
  H   H44       1.0  0.89399  0.49539  0.29107  1.0000
  N   N9        1.0  0.57675  0.11141  0.30238  1.0000
  H   H45       1.0  0.59991  0.10413  0.29115  1.0000
  C   C58       1.0  0.51649  0.47467  0.35954  1.0000
  N   N10       1.0  0.49828  0.52649  0.39607  1.0000
  C   C59       1.0  0.51529  0.50287  0.42246  1.0000
  C   C60       1.0  0.53161  0.50847  0.51480  1.0000
  O   O1        1.0  0.50954  0.47114  0.56711  1.0000
  H   H46       1.0  0.52999  0.53402  0.54835  1.0000
  H   H47       1.0  0.56461  0.51718  0.51249  1.0000
  H   H48       1.0  0.48048  0.46509  0.57498  1.0000
  C   C61       1.0  0.53518  0.44793  0.37888  1.0000
  H   H49       1.0  0.51901  0.42782  0.43588  1.0000
  H   H50       1.0  0.56803  0.46875  0.39697  1.0000
  C   C62       1.0  0.52344  0.04144  0.35958  1.0000
  N   N11       1.0  0.47162  0.97141  0.39610  1.0000
  C   C63       1.0  0.49523  0.01205  0.42249  1.0000
  C   C64       1.0  0.48961  0.02277  0.51480  1.0000
  O   O2        1.0  0.52693  0.03807  0.56715  1.0000
  H   H51       1.0  0.46406  0.99559  0.54837  1.0000
  H   H52       1.0  0.48086  0.04703  0.51245  1.0000
  H   H53       1.0  0.53302  0.01509  0.57505  1.0000
  C   C65       1.0  0.55018  0.08688  0.37894  1.0000
  H   H54       1.0  0.57030  0.09081  0.43594  1.0000
  H   H55       1.0  0.52936  0.09890  0.39702  1.0000
  C   C66       1.0  0.95668  0.48162  0.35955  1.0000
  N   N12       1.0  0.02671  0.49984  0.39611  1.0000
  C   C67       1.0  0.98607  0.48282  0.42249  1.0000
  C   C68       1.0  0.97535  0.46647  0.51480  1.0000
  O   O3        1.0  0.96002  0.48849  0.56713  1.0000
  H   H56       1.0  0.00252  0.46812  0.54838  1.0000
  H   H57       1.0  0.95109  0.43346  0.51245  1.0000
  H   H58       1.0  0.98301  0.51756  0.57503  1.0000
  C   C69       1.0  0.91124  0.46293  0.37890  1.0000
  H   H59       1.0  0.90730  0.47911  0.43588  1.0000
  H   H60       1.0  0.89922  0.43008  0.39701  1.0000
