data_image0
_chemical_formula_structural       C8H3NO2C8H3NO2C8H3NO2C2HC2H2NO2C2HC2H2NO2C2HC2H2NO2NC18H12NC18H12NC18H12NC18H12C2HC2H2NO2C2HC2H2NO2C2HC2H2NO2C8H3NO2C8H3NO2C8H3NO2
_chemical_formula_sum              "C144 H84 N16 O24"
_cell_length_a       50.4967
_cell_length_b       50.4966
_cell_length_c       14.7978
_cell_angle_alpha    90
_cell_angle_beta     90
_cell_angle_gamma    120

_space_group_name_H-M_alt    "P 1"
_space_group_IT_number       1

loop_
  _space_group_symop_operation_xyz
  'x, y, z'

loop_
  _atom_site_type_symbol
  _atom_site_label
  _atom_site_symmetry_multiplicity
  _atom_site_fract_x
  _atom_site_fract_y
  _atom_site_fract_z
  _atom_site_occupancy
  C   C1        1.0  0.30071  0.15029  0.35140  1.0000
  C   C2        1.0  0.28380  0.16290  0.31302  1.0000
  C   C3        1.0  0.25160  0.14674  0.31325  1.0000
  C   C4        1.0  0.23480  0.11704  0.35078  1.0000
  C   C5        1.0  0.20194  0.10117  0.34832  1.0000
  C   C6        1.0  0.18528  0.09487  0.26610  1.0000
  C   C7        1.0  0.15281  0.07919  0.26791  1.0000
  C   C8        1.0  0.13580  0.06886  0.34929  1.0000
  H   H1        1.0  0.14156  0.07559  0.20774  1.0000
  H   H2        1.0  0.29485  0.18443  0.28596  1.0000
  H   H3        1.0  0.24043  0.15708  0.28605  1.0000
  N   N1        1.0  0.20128  0.10347  0.18286  1.0000
  O   O1        1.0  0.19570  0.12147  0.13922  1.0000
  O   O2        1.0  0.19468  0.08056  0.13435  1.0000
  C   C9        1.0  0.85779  0.15377  0.35105  1.0000
  C   C10       1.0  0.84516  0.12427  0.31251  1.0000
  C   C11       1.0  0.86127  0.10818  0.31276  1.0000
  C   C12       1.0  0.89093  0.12099  0.35046  1.0000
  C   C13       1.0  0.90675  0.10395  0.34803  1.0000
  C   C14       1.0  0.91305  0.09359  0.26583  1.0000
  C   C15       1.0  0.92871  0.07678  0.26766  1.0000
  C   C16       1.0  0.93901  0.07007  0.34906  1.0000
  H   H4        1.0  0.93231  0.06913  0.20750  1.0000
  H   H5        1.0  0.82364  0.11383  0.28532  1.0000
  H   H6        1.0  0.85090  0.08667  0.28545  1.0000
  N   N2        1.0  0.90449  0.10101  0.18256  1.0000
  O   O3        1.0  0.88647  0.07743  0.13890  1.0000
  O   O4        1.0  0.92741  0.11731  0.13408  1.0000
  C   C17       1.0  0.85426  0.70718  0.35063  1.0000
  C   C18       1.0  0.88377  0.72407  0.31220  1.0000
  C   C19       1.0  0.89984  0.75627  0.31249  1.0000
  C   C20       1.0  0.88698  0.77309  0.35010  1.0000
  C   C21       1.0  0.90400  0.80595  0.34773  1.0000
  C   C22       1.0  0.91439  0.82264  0.26555  1.0000
  C   C23       1.0  0.93117  0.85510  0.26746  1.0000
  C   C24       1.0  0.93784  0.87209  0.34888  1.0000
  H   H7        1.0  0.93885  0.86637  0.20732  1.0000
  H   H8        1.0  0.89424  0.71301  0.28509  1.0000
  H   H9        1.0  0.92136  0.76743  0.28527  1.0000
  N   N3        1.0  0.90700  0.80666  0.18227  1.0000
  O   O5        1.0  0.93061  0.81225  0.13870  1.0000
  O   O6        1.0  0.89072  0.81328  0.13372  1.0000
  C   C25       1.0  0.63643  0.21153  0.29894  1.0000
  C   C26       1.0  0.66490  0.21238  0.29543  1.0000
  H   H10       1.0  0.68348  0.23171  0.27101  1.0000
  C   C27       1.0  0.53937  0.18667  0.26954  1.0000
  C   C28       1.0  0.56691  0.18615  0.26454  1.0000
  H   H11       1.0  0.53092  0.19022  0.21085  1.0000
  H   H12       1.0  0.57676  0.18835  0.20245  1.0000
  N   N4        1.0  0.63383  0.23673  0.26838  1.0000
  O   O7        1.0  0.64028  0.24188  0.18585  1.0000
  O   O8        1.0  0.65086  0.26062  0.31224  1.0000
  C   C29       1.0  0.79784  0.42867  0.29924  1.0000
  C   C30       1.0  0.79682  0.45619  0.29568  1.0000
  H   H13       1.0  0.77749  0.45534  0.27079  1.0000
  C   C31       1.0  0.82307  0.35681  0.27030  1.0000
  C   C32       1.0  0.82365  0.38490  0.26535  1.0000
  H   H14       1.0  0.81967  0.34490  0.21149  1.0000
  H   H15       1.0  0.82163  0.39265  0.20321  1.0000
  N   N5        1.0  0.77282  0.40082  0.26810  1.0000
  O   O9        1.0  0.76787  0.40220  0.18545  1.0000
  O   O10       1.0  0.74877  0.39377  0.31139  1.0000
  C   C33       1.0  0.57959  0.37201  0.30265  1.0000
  C   C34       1.0  0.55200  0.34354  0.29902  1.0000
  H   H16       1.0  0.55281  0.32491  0.27533  1.0000
  C   C35       1.0  0.65169  0.46886  0.27070  1.0000
  C   C36       1.0  0.62358  0.44134  0.26622  1.0000
  H   H17       1.0  0.66374  0.47706  0.21197  1.0000
  H   H18       1.0  0.61597  0.43126  0.20439  1.0000
  N   N6        1.0  0.60750  0.37455  0.27343  1.0000
  O   O11       1.0  0.60647  0.36786  0.19119  1.0000
  O   O12       1.0  0.61423  0.35766  0.31856  1.0000
  N   N7        1.0  0.00420  0.00367  0.35058  1.0000
  C   C37       1.0  0.03682  0.01981  0.35032  1.0000
  C   C38       1.0  0.98772  0.97106  0.35023  1.0000
  C   C39       1.0  0.98806  0.02015  0.35026  1.0000
  C   C40       1.0  0.99140  0.03990  0.27827  1.0000
  C   C41       1.0  0.97562  0.05637  0.27841  1.0000
  C   C42       1.0  0.95539  0.05338  0.34947  1.0000
  C   C43       1.0  0.95211  0.03319  0.42098  1.0000
  C   C44       1.0  0.96830  0.01713  0.42186  1.0000
  C   C45       1.0  0.05326  0.01648  0.27837  1.0000
  C   C46       1.0  0.08550  0.03225  0.27856  1.0000
  C   C47       1.0  0.10273  0.05247  0.34966  1.0000
  C   C48       1.0  0.08580  0.05573  0.42116  1.0000
  C   C49       1.0  0.05356  0.03955  0.42198  1.0000
  C   C50       1.0  0.99072  0.95430  0.42186  1.0000
  C   C51       1.0  0.97466  0.92206  0.42093  1.0000
  C   C52       1.0  0.95450  0.90515  0.34935  1.0000
  C   C53       1.0  0.95153  0.92241  0.27829  1.0000
  C   C54       1.0  0.96799  0.95464  0.27821  1.0000
  H   H19       1.0  0.09624  0.02826  0.22618  1.0000
  H   H20       1.0  0.04173  0.00217  0.22577  1.0000
  H   H21       1.0  0.04225  0.04254  0.47479  1.0000
  H   H22       1.0  0.09679  0.07045  0.47338  1.0000
  H   H23       1.0  0.00573  0.04270  0.22574  1.0000
  H   H24       1.0  0.97963  0.07111  0.22604  1.0000
  H   H25       1.0  0.00501  0.96560  0.47470  1.0000
  H   H26       1.0  0.97839  0.91105  0.47311  1.0000
  H   H27       1.0  0.93682  0.91168  0.22585  1.0000
  H   H28       1.0  0.96523  0.96619  0.22562  1.0000
  H   H29       1.0  0.96530  0.00283  0.47468  1.0000
  H   H30       1.0  0.93738  0.02946  0.47316  1.0000
  N   N8        1.0  0.43167  0.21619  0.35025  1.0000
  C   C55       1.0  0.44852  0.24841  0.33778  1.0000
  C   C56       1.0  0.39920  0.19964  0.35028  1.0000
  C   C57       1.0  0.44959  0.20179  0.35982  1.0000
  C   C58       1.0  0.46956  0.20920  0.43419  1.0000
  C   C59       1.0  0.49338  0.20241  0.43311  1.0000
  C   C60       1.0  0.49776  0.18723  0.35881  1.0000
  C   C61       1.0  0.47599  0.17780  0.28773  1.0000
  C   C62       1.0  0.45251  0.18521  0.28765  1.0000
  C   C63       1.0  0.45482  0.26805  0.41248  1.0000
  C   C64       1.0  0.47859  0.29874  0.40850  1.0000
  C   C65       1.0  0.49678  0.31059  0.32981  1.0000
  C   C66       1.0  0.48900  0.29123  0.25334  1.0000
  C   C67       1.0  0.46526  0.26059  0.25726  1.0000
  C   C68       1.0  0.38281  0.18435  0.42873  1.0000
  C   C69       1.0  0.35056  0.16806  0.42893  1.0000
  C   C70       1.0  0.33357  0.16673  0.35104  1.0000
  C   C71       1.0  0.35031  0.18224  0.27266  1.0000
  C   C72       1.0  0.38255  0.19829  0.27212  1.0000
  H   H31       1.0  0.48407  0.31159  0.46620  1.0000
  H   H32       1.0  0.44400  0.25935  0.47273  1.0000
  H   H33       1.0  0.46189  0.24653  0.20345  1.0000
  H   H34       1.0  0.50164  0.29880  0.19528  1.0000
  H   H35       1.0  0.46862  0.22209  0.48605  1.0000
  H   H36       1.0  0.50890  0.21095  0.48469  1.0000
  H   H37       1.0  0.39436  0.18515  0.48638  1.0000
  H   H38       1.0  0.33955  0.15766  0.48761  1.0000
  H   H39       1.0  0.33912  0.18155  0.21428  1.0000
  H   H40       1.0  0.39391  0.20907  0.21426  1.0000
  H   H41       1.0  0.43891  0.18034  0.23181  1.0000
  H   H42       1.0  0.47774  0.16653  0.23273  1.0000
  N   N9        1.0  0.79225  0.21917  0.34976  1.0000
  C   C73       1.0  0.76004  0.20398  0.33684  1.0000
  C   C74       1.0  0.80865  0.20310  0.34988  1.0000
  C   C75       1.0  0.80681  0.25149  0.35976  1.0000
  C   C76       1.0  0.79935  0.26402  0.43411  1.0000
  C   C77       1.0  0.80638  0.29470  0.43326  1.0000
  C   C78       1.0  0.82193  0.31437  0.35947  1.0000
  C   C79       1.0  0.83145  0.30202  0.28861  1.0000
  C   C80       1.0  0.82374  0.27105  0.28812  1.0000
  C   C81       1.0  0.74029  0.19065  0.41128  1.0000
  C   C82       1.0  0.70965  0.18387  0.40683  1.0000
  C   C83       1.0  0.69795  0.19030  0.32796  1.0000
  C   C84       1.0  0.71746  0.20189  0.25177  1.0000
  C   C85       1.0  0.74807  0.20869  0.25614  1.0000
  C   C86       1.0  0.82379  0.20184  0.42848  1.0000
  C   C87       1.0  0.84002  0.18582  0.42870  1.0000
  C   C88       1.0  0.84140  0.17023  0.35070  1.0000
  C   C89       1.0  0.82602  0.17161  0.27220  1.0000
  C   C90       1.0  0.81006  0.18789  0.27163  1.0000
  H   H43       1.0  0.69671  0.17650  0.46438  1.0000
  H   H44       1.0  0.74886  0.18843  0.47165  1.0000
  H   H45       1.0  0.76223  0.21938  0.20253  1.0000
  H   H46       1.0  0.71002  0.20700  0.19354  1.0000
  H   H47       1.0  0.78626  0.25015  0.48562  1.0000
  H   H48       1.0  0.79786  0.30173  0.48479  1.0000
  H   H49       1.0  0.82296  0.21255  0.48618  1.0000
  H   H50       1.0  0.85032  0.18510  0.48745  1.0000
  H   H51       1.0  0.82678  0.16118  0.21375  1.0000
  H   H52       1.0  0.79940  0.18859  0.21367  1.0000
  H   H53       1.0  0.82868  0.26234  0.23237  1.0000
  H   H54       1.0  0.84297  0.31511  0.23396  1.0000
  N   N10       1.0  0.78908  0.57625  0.34954  1.0000
  C   C91       1.0  0.80439  0.55935  0.33692  1.0000
  C   C92       1.0  0.80506  0.60872  0.34955  1.0000
  C   C93       1.0  0.75677  0.55839  0.35933  1.0000
  C   C94       1.0  0.74421  0.53860  0.43405  1.0000
  C   C95       1.0  0.71353  0.51493  0.43333  1.0000
  C   C96       1.0  0.69393  0.51059  0.35918  1.0000
  C   C97       1.0  0.70632  0.53222  0.28774  1.0000
  C   C98       1.0  0.73727  0.55552  0.28721  1.0000
  C   C99       1.0  0.81767  0.55300  0.41168  1.0000
  C   C100      1.0  0.82468  0.52930  0.40749  1.0000
  C   C101      1.0  0.81852  0.51124  0.32856  1.0000
  C   C102      1.0  0.80701  0.51911  0.25208  1.0000
  C   C103      1.0  0.80001  0.54278  0.25618  1.0000
  C   C104      1.0  0.80625  0.62512  0.42809  1.0000
  C   C105      1.0  0.82223  0.65736  0.42827  1.0000
  C   C106      1.0  0.83783  0.67433  0.35028  1.0000
  C   C107      1.0  0.83650  0.65758  0.27183  1.0000
  C   C108      1.0  0.82027  0.62534  0.27130  1.0000
  H   H55       1.0  0.83190  0.52372  0.46531  1.0000
  H   H56       1.0  0.81962  0.56368  0.47208  1.0000
  H   H57       1.0  0.78935  0.54620  0.20238  1.0000
  H   H58       1.0  0.80211  0.50661  0.19379  1.0000
  H   H59       1.0  0.75805  0.53956  0.48591  1.0000
  H   H60       1.0  0.70645  0.49954  0.48530  1.0000
  H   H61       1.0  0.79554  0.61358  0.48579  1.0000
  H   H62       1.0  0.82292  0.66839  0.48699  1.0000
  H   H63       1.0  0.84695  0.66877  0.21339  1.0000
  H   H64       1.0  0.81962  0.61398  0.21338  1.0000
  H   H65       1.0  0.74602  0.56902  0.23118  1.0000
  H   H66       1.0  0.69327  0.53043  0.23275  1.0000
  C   C109      1.0  0.25142  0.10404  0.38998  1.0000
  C   C110      1.0  0.28389  0.12076  0.38997  1.0000
  H   H67       1.0  0.29536  0.11067  0.41685  1.0000
  C   C111      1.0  0.15295  0.07533  0.43023  1.0000
  C   C112      1.0  0.18515  0.09128  0.42988  1.0000
  H   H68       1.0  0.14214  0.06799  0.49114  1.0000
  H   H69       1.0  0.19633  0.09561  0.49052  1.0000
  N   N11       1.0  0.23537  0.07414  0.42663  1.0000
  O   O13       1.0  0.24114  0.07409  0.50924  1.0000
  O   O14       1.0  0.24174  0.05619  0.38596  1.0000
  C   C113      1.0  0.90396  0.15060  0.38980  1.0000
  C   C114      1.0  0.88729  0.16640  0.38980  1.0000
  H   H70       1.0  0.89739  0.18794  0.41680  1.0000
  C   C115      1.0  0.93253  0.08075  0.42998  1.0000
  C   C116      1.0  0.91660  0.09702  0.42961  1.0000
  H   H71       1.0  0.93985  0.07727  0.49092  1.0000
  H   H72       1.0  0.91227  0.10387  0.49024  1.0000
  N   N12       1.0  0.93384  0.16438  0.42661  1.0000
  O   O15       1.0  0.93384  0.17016  0.50925  1.0000
  O   O16       1.0  0.95184  0.18871  0.38609  1.0000
  C   C117      1.0  0.85735  0.75649  0.38932  1.0000
  C   C118      1.0  0.84157  0.72402  0.38928  1.0000
  H   H73       1.0  0.82003  0.71256  0.41619  1.0000
  C   C119      1.0  0.92713  0.85491  0.42977  1.0000
  C   C120      1.0  0.91088  0.82271  0.42934  1.0000
  H   H74       1.0  0.93058  0.86570  0.49071  1.0000
  H   H75       1.0  0.90401  0.81152  0.48994  1.0000
  N   N13       1.0  0.84353  0.77255  0.42605  1.0000
  O   O17       1.0  0.83772  0.76677  0.50867  1.0000
  O   O18       1.0  0.81921  0.76621  0.38544  1.0000
  C   C121      1.0  0.66854  0.18804  0.32815  1.0000
  C   C122      1.0  0.64254  0.16238  0.36491  1.0000
  C   C123      1.0  0.61405  0.16104  0.36818  1.0000
  C   C124      1.0  0.61053  0.18550  0.33604  1.0000
  C   C125      1.0  0.58143  0.18378  0.34330  1.0000
  C   C126      1.0  0.56700  0.18087  0.42801  1.0000
  C   C127      1.0  0.53876  0.18054  0.43140  1.0000
  C   C128      1.0  0.52457  0.18405  0.35317  1.0000
  H   H76       1.0  0.52882  0.17824  0.49327  1.0000
  H   H77       1.0  0.64405  0.14418  0.38895  1.0000
  H   H78       1.0  0.59575  0.14190  0.39460  1.0000
  N   N14       1.0  0.58172  0.17994  0.50850  1.0000
  O   O19       1.0  0.56543  0.15591  0.55270  1.0000
  O   O20       1.0  0.58827  0.20258  0.55825  1.0000
  C   C129      1.0  0.82096  0.48419  0.32894  1.0000
  C   C130      1.0  0.84661  0.48398  0.36636  1.0000
  C   C131      1.0  0.84811  0.45691  0.36970  1.0000
  C   C132      1.0  0.82385  0.42892  0.33694  1.0000
  C   C133      1.0  0.82573  0.40163  0.34421  1.0000
  C   C134      1.0  0.82836  0.38996  0.42898  1.0000
  C   C135      1.0  0.82865  0.36203  0.43233  1.0000
  C   C136      1.0  0.82535  0.34445  0.35398  1.0000
  H   H79       1.0  0.83072  0.35427  0.49426  1.0000
  H   H80       1.0  0.86467  0.50372  0.39082  1.0000
  H   H81       1.0  0.86724  0.45785  0.39661  1.0000
  N   N15       1.0  0.82901  0.40546  0.50950  1.0000
  O   O21       1.0  0.85289  0.41312  0.55443  1.0000
  O   O22       1.0  0.80620  0.38929  0.55856  1.0000
  C   C137      1.0  0.52392  0.33998  0.33050  1.0000
  C   C138      1.0  0.52413  0.36602  0.36637  1.0000
  C   C139      1.0  0.55127  0.39453  0.36964  1.0000
  C   C140      1.0  0.57933  0.39800  0.33848  1.0000
  C   C141      1.0  0.60665  0.42715  0.34520  1.0000
  C   C142      1.0  0.61814  0.44190  0.42955  1.0000
  C   C143      1.0  0.64611  0.47008  0.43240  1.0000
  C   C144      1.0  0.66386  0.48392  0.35399  1.0000
  H   H82       1.0  0.65377  0.48024  0.49401  1.0000
  H   H83       1.0  0.50433  0.36452  0.38956  1.0000
  H   H84       1.0  0.55034  0.41289  0.39518  1.0000
  N   N16       1.0  0.60239  0.42753  0.51024  1.0000
  O   O23       1.0  0.59467  0.44406  0.55327  1.0000
  O   O24       1.0  0.61837  0.42113  0.56093  1.0000
