data_image0
_chemical_formula_structural       NC2HNHNC2HNHNC2HNHCNCNCNC18H12C3O3CNCNCNC18H12C3O3CNCNH2NHCNCNH2NHCNCNH2NH
_chemical_formula_sum              "N21 C60 H39 O6"
_cell_length_a       36.5939
_cell_length_b       36.5934
_cell_length_c       15.076
_cell_angle_alpha    90
_cell_angle_beta     90
_cell_angle_gamma    120

_space_group_name_H-M_alt    "P 1"
_space_group_IT_number       1

loop_
  _space_group_symop_operation_xyz
  'x, y, z'

loop_
  _atom_site_type_symbol
  _atom_site_label
  _atom_site_symmetry_multiplicity
  _atom_site_fract_x
  _atom_site_fract_y
  _atom_site_fract_z
  _atom_site_occupancy
  N   N1        1.0  0.52439  0.49821  0.27580  1.0000
  C   C1        1.0  0.49992  0.51471  0.25269  1.0000
  C   C2        1.0  0.47142  0.51478  0.31542  1.0000
  H   H1        1.0  0.50191  0.52607  0.18991  1.0000
  N   N2        1.0  0.44738  0.53279  0.29681  1.0000
  H   H2        1.0  0.45621  0.55203  0.24629  1.0000
  N   N3        1.0  0.49554  0.02494  0.27574  1.0000
  C   C3        1.0  0.47903  0.98397  0.25263  1.0000
  C   C4        1.0  0.47896  0.95539  0.31534  1.0000
  H   H3        1.0  0.46769  0.97460  0.18983  1.0000
  N   N4        1.0  0.46093  0.91333  0.29675  1.0000
  H   H4        1.0  0.44169  0.90293  0.24623  1.0000
  N   N5        1.0  0.96879  0.46932  0.27567  1.0000
  C   C5        1.0  0.00976  0.49378  0.25261  1.0000
  C   C6        1.0  0.03832  0.52231  0.31531  1.0000
  H   H5        1.0  0.01916  0.49173  0.18988  1.0000
  N   N6        1.0  0.08038  0.54633  0.29678  1.0000
  H   H6        1.0  0.09079  0.53747  0.24631  1.0000
  C   C7        1.0  0.28662  0.64837  0.31646  1.0000
  N   N7        1.0  0.30316  0.62239  0.31673  1.0000
  C   C8        1.0  0.34533  0.63699  0.31645  1.0000
  N   N8        1.0  0.37131  0.67951  0.31671  1.0000
  C   C9        1.0  0.35672  0.70708  0.31642  1.0000
  N   N9        1.0  0.31419  0.69054  0.31672  1.0000
  C   C10       1.0  0.36170  0.60903  0.31938  1.0000
  C   C11       1.0  0.33512  0.56520  0.33412  1.0000
  C   C12       1.0  0.35183  0.53807  0.34127  1.0000
  C   C13       1.0  0.39561  0.55375  0.33202  1.0000
  C   C14       1.0  0.42218  0.59740  0.31656  1.0000
  C   C15       1.0  0.40554  0.62452  0.31039  1.0000
  C   C16       1.0  0.24230  0.63200  0.31938  1.0000
  C   C17       1.0  0.21395  0.58817  0.31044  1.0000
  C   C18       1.0  0.17019  0.57153  0.31656  1.0000
  C   C19       1.0  0.15310  0.59810  0.33201  1.0000
  C   C20       1.0  0.18120  0.64188  0.34123  1.0000
  C   C21       1.0  0.22504  0.65859  0.33409  1.0000
  C   C22       1.0  0.38467  0.75141  0.31936  1.0000
  C   C23       1.0  0.36918  0.77975  0.31036  1.0000
  C   C24       1.0  0.39631  0.82352  0.31647  1.0000
  C   C25       1.0  0.43996  0.84060  0.33197  1.0000
  C   C26       1.0  0.45563  0.81250  0.34125  1.0000
  C   C27       1.0  0.42851  0.76866  0.33407  1.0000
  H   H7        1.0  0.15109  0.53948  0.31284  1.0000
  H   H8        1.0  0.22474  0.56752  0.30048  1.0000
  H   H9        1.0  0.17001  0.66208  0.35297  1.0000
  H   H10       1.0  0.24421  0.69044  0.34190  1.0000
  H   H11       1.0  0.33776  0.76897  0.30029  1.0000
  H   H12       1.0  0.38337  0.84262  0.31264  1.0000
  H   H13       1.0  0.44119  0.74950  0.34200  1.0000
  H   H14       1.0  0.48702  0.82369  0.35304  1.0000
  H   H15       1.0  0.42617  0.65595  0.30035  1.0000
  H   H16       1.0  0.45422  0.61034  0.31272  1.0000
  H   H17       1.0  0.33163  0.50668  0.35303  1.0000
  H   H18       1.0  0.30327  0.55251  0.34197  1.0000
  C   C28       1.0  0.10898  0.58066  0.34356  1.0000
  C   C29       1.0  0.46665  0.88473  0.34353  1.0000
  C   C30       1.0  0.41305  0.52706  0.34358  1.0000
  O   O1        1.0  0.39484  0.49587  0.40473  1.0000
  O   O2        1.0  0.49782  0.89770  0.40472  1.0000
  O   O3        1.0  0.09599  0.59889  0.40464  1.0000
  C   C31       1.0  0.70572  0.34596  0.32185  1.0000
  N   N10       1.0  0.68977  0.37245  0.32194  1.0000
  C   C32       1.0  0.64773  0.35850  0.32184  1.0000
  N   N11       1.0  0.62124  0.31607  0.32196  1.0000
  C   C33       1.0  0.63518  0.28796  0.32186  1.0000
  N   N12       1.0  0.67762  0.30392  0.32196  1.0000
  C   C34       1.0  0.63204  0.38706  0.32291  1.0000
  C   C35       1.0  0.65956  0.43135  0.32224  1.0000
  C   C36       1.0  0.64374  0.45936  0.32354  1.0000
  C   C37       1.0  0.59985  0.44400  0.32702  1.0000
  C   C38       1.0  0.57230  0.39984  0.32655  1.0000
  C   C39       1.0  0.58808  0.37193  0.32462  1.0000
  C   C40       1.0  0.74997  0.36166  0.32289  1.0000
  C   C41       1.0  0.77878  0.40561  0.32457  1.0000
  C   C42       1.0  0.82248  0.42141  0.32640  1.0000
  C   C43       1.0  0.83910  0.39387  0.32691  1.0000
  C   C44       1.0  0.81057  0.34997  0.32349  1.0000
  C   C45       1.0  0.76675  0.33414  0.32222  1.0000
  C   C46       1.0  0.60663  0.24371  0.32293  1.0000
  C   C47       1.0  0.62177  0.21490  0.32466  1.0000
  C   C48       1.0  0.59386  0.17120  0.32655  1.0000
  C   C49       1.0  0.54970  0.15459  0.32704  1.0000
  C   C50       1.0  0.53434  0.18312  0.32355  1.0000
  C   C51       1.0  0.56233  0.22694  0.32226  1.0000
  H   H19       1.0  0.84201  0.45345  0.32527  1.0000
  H   H20       1.0  0.76843  0.42693  0.32409  1.0000
  H   H21       1.0  0.82140  0.32903  0.32330  1.0000
  H   H22       1.0  0.74729  0.30212  0.32062  1.0000
  H   H23       1.0  0.65343  0.22525  0.32415  1.0000
  H   H24       1.0  0.60637  0.15168  0.32537  1.0000
  H   H25       1.0  0.54978  0.24640  0.32062  1.0000
  H   H26       1.0  0.50257  0.17230  0.32333  1.0000
  H   H27       1.0  0.56677  0.34026  0.32411  1.0000
  H   H28       1.0  0.54026  0.38733  0.32533  1.0000
  H   H29       1.0  0.66469  0.49112  0.32332  1.0000
  H   H30       1.0  0.69158  0.44391  0.32061  1.0000
  C   C52       1.0  0.88340  0.41022  0.32635  1.0000
  C   C53       1.0  0.52176  0.11029  0.32645  1.0000
  C   C54       1.0  0.58350  0.47195  0.32644  1.0000
  O   O4        1.0  0.60490  0.50835  0.27990  1.0000
  O   O5        1.0  0.48537  0.09529  0.27988  1.0000
  O   O6        1.0  0.89840  0.38884  0.27974  1.0000
  C   C55       1.0  0.52444  0.48261  0.35778  1.0000
  N   N13       1.0  0.47168  0.49941  0.39739  1.0000
  C   C56       1.0  0.49638  0.48316  0.42217  1.0000
  N   N14       1.0  0.49319  0.46971  0.50701  1.0000
  H   H31       1.0  0.51155  0.45999  0.53054  1.0000
  H   H32       1.0  0.47392  0.47192  0.54818  1.0000
  N   N15       1.0  0.54759  0.46314  0.37094  1.0000
  H   H33       1.0  0.53558  0.43904  0.41097  1.0000
  C   C57       1.0  0.51114  0.04057  0.35772  1.0000
  N   N16       1.0  0.49430  0.97100  0.39735  1.0000
  C   C58       1.0  0.51056  0.01195  0.42213  1.0000
  N   N17       1.0  0.52395  0.02220  0.50701  1.0000
  H   H34       1.0  0.53368  0.05028  0.53054  1.0000
  H   H35       1.0  0.52170  0.00070  0.54820  1.0000
  N   N18       1.0  0.53057  0.08319  0.37095  1.0000
  H   H36       1.0  0.55467  0.09528  0.41100  1.0000
  C   C59       1.0  0.95311  0.46932  0.35758  1.0000
  N   N19       1.0  0.02267  0.52208  0.39726  1.0000
  C   C60       1.0  0.98171  0.49739  0.42199  1.0000
  N   N20       1.0  0.97142  0.50060  0.50681  1.0000
  H   H37       1.0  0.94344  0.48194  0.53047  1.0000
  H   H38       1.0  0.99299  0.51960  0.54816  1.0000
  N   N21       1.0  0.91050  0.44615  0.37080  1.0000
  H   H39       1.0  0.89839  0.45812  0.41089  1.0000
