data_image0
_chemical_formula_structural       C13H9C13H9C13H9C13H9NC3H3NC3H3NC3H3CNCHCNCHCNCHC17H12C17H12C17H12C17H12CNCHCNCHCNCHNC3H3NC3H3NC3H3
_chemical_formula_sum              "C150 H108 N12"
_cell_length_a       56.9175
_cell_length_b       56.9009
_cell_length_c       14.9815
_cell_angle_alpha    90
_cell_angle_beta     90
_cell_angle_gamma    120.005

_space_group_name_H-M_alt    "P 1"
_space_group_IT_number       1

loop_
  _space_group_symop_operation_xyz
  'x, y, z'

loop_
  _atom_site_type_symbol
  _atom_site_label
  _atom_site_symmetry_multiplicity
  _atom_site_fract_x
  _atom_site_fract_y
  _atom_site_fract_z
  _atom_site_occupancy
  C   C1        1.0  0.90953  0.83676  0.32664  1.0000
  C   C2        1.0  0.93524  0.89452  0.32879  1.0000
  C   C3        1.0  0.90665  0.87833  0.33090  1.0000
  C   C4        1.0  0.89398  0.84982  0.33088  1.0000
  C   C5        1.0  0.94732  0.92261  0.32609  1.0000
  C   C6        1.0  0.06609  0.02518  0.32676  1.0000
  C   C7        1.0  0.11036  0.02880  0.33181  1.0000
  C   C8        1.0  0.15191  0.07326  0.32745  1.0000
  C   C9        1.0  0.13885  0.04464  0.33185  1.0000
  C   C10       1.0  0.96353  0.04142  0.32642  1.0000
  C   C11       1.0  0.91885  0.03783  0.32542  1.0000
  C   C12       1.0  0.91537  0.07908  0.32679  1.0000
  C   C13       1.0  0.90301  0.05049  0.32488  1.0000
  H   H1        1.0  0.87323  0.83866  0.33215  1.0000
  H   H2        1.0  0.89477  0.88714  0.33272  1.0000
  H   H3        1.0  0.90926  0.01708  0.32266  1.0000
  H   H4        1.0  0.10154  0.00810  0.33365  1.0000
  H   H5        1.0  0.15001  0.03504  0.33309  1.0000
  H   H6        1.0  0.88233  0.03858  0.32411  1.0000
  H   H7        1.0  0.05828  0.01042  0.28142  1.0000
  H   H8        1.0  0.94039  0.93044  0.28074  1.0000
  H   H9        1.0  0.97833  0.04842  0.28122  1.0000
  C   C14       1.0  0.52378  0.36614  0.30448  1.0000
  C   C15       1.0  0.47993  0.31118  0.31078  1.0000
  C   C16       1.0  0.50219  0.31882  0.25289  1.0000
  C   C17       1.0  0.52371  0.34577  0.24994  1.0000
  C   C18       1.0  0.46015  0.28390  0.31645  1.0000
  C   C19       1.0  0.35283  0.17953  0.33748  1.0000
  C   C20       1.0  0.30906  0.17443  0.29988  1.0000
  C   C21       1.0  0.26647  0.13308  0.33927  1.0000
  C   C22       1.0  0.28054  0.15911  0.29934  1.0000
  C   C23       1.0  0.45809  0.17225  0.34993  1.0000
  C   C24       1.0  0.50475  0.18705  0.31396  1.0000
  C   C25       1.0  0.52308  0.15646  0.33212  1.0000
  C   C26       1.0  0.52644  0.18199  0.30796  1.0000
  H   H10       1.0  0.53998  0.34992  0.21041  1.0000
  H   H11       1.0  0.50350  0.30459  0.21461  1.0000
  H   H12       1.0  0.50797  0.20586  0.29665  1.0000
  H   H13       1.0  0.31838  0.19324  0.27070  1.0000
  H   H14       1.0  0.27012  0.16745  0.27030  1.0000
  H   H15       1.0  0.54492  0.19739  0.28714  1.0000
  H   H16       1.0  0.36132  0.18944  0.28108  1.0000
  H   H17       1.0  0.45441  0.27334  0.25972  1.0000
  H   H18       1.0  0.44497  0.16632  0.29949  1.0000
  C   C27       1.0  0.62245  0.15812  0.30463  1.0000
  C   C28       1.0  0.67742  0.16930  0.31095  1.0000
  C   C29       1.0  0.66975  0.18388  0.25296  1.0000
  C   C30       1.0  0.64281  0.17843  0.25004  1.0000
  C   C31       1.0  0.70470  0.17686  0.31665  1.0000
  C   C32       1.0  0.80904  0.17367  0.33732  1.0000
  C   C33       1.0  0.81418  0.13504  0.29921  1.0000
  C   C34       1.0  0.85547  0.13373  0.33893  1.0000
  C   C35       1.0  0.82949  0.12183  0.29864  1.0000
  C   C36       1.0  0.81652  0.28623  0.35009  1.0000
  C   C37       1.0  0.80171  0.31806  0.31353  1.0000
  C   C38       1.0  0.83216  0.36699  0.33231  1.0000
  C   C39       1.0  0.80671  0.34480  0.30758  1.0000
  H   H19       1.0  0.63864  0.19054  0.21050  1.0000
  H   H20       1.0  0.68397  0.19945  0.21473  1.0000
  H   H21       1.0  0.78295  0.30245  0.29586  1.0000
  H   H22       1.0  0.79542  0.12560  0.26975  1.0000
  H   H23       1.0  0.82119  0.10311  0.26927  1.0000
  H   H24       1.0  0.79133  0.34786  0.28639  1.0000
  H   H25       1.0  0.79921  0.17235  0.28083  1.0000
  H   H26       1.0  0.71528  0.18170  0.25996  1.0000
  H   H27       1.0  0.82227  0.27900  0.29930  1.0000
  C   C40       1.0  0.83045  0.46470  0.30432  1.0000
  C   C41       1.0  0.81912  0.50841  0.31049  1.0000
  C   C42       1.0  0.80457  0.48611  0.25263  1.0000
  C   C43       1.0  0.81011  0.46467  0.24974  1.0000
  C   C44       1.0  0.81144  0.52805  0.31620  1.0000
  C   C45       1.0  0.81490  0.63579  0.33756  1.0000
  C   C46       1.0  0.85356  0.67957  0.29972  1.0000
  C   C47       1.0  0.85480  0.72218  0.33895  1.0000
  C   C48       1.0  0.86675  0.70810  0.29905  1.0000
  C   C49       1.0  0.70232  0.53057  0.34987  1.0000
  C   C50       1.0  0.67048  0.48390  0.31383  1.0000
  C   C51       1.0  0.62156  0.46549  0.33216  1.0000
  C   C52       1.0  0.64374  0.46217  0.30788  1.0000
  H   H28       1.0  0.79800  0.44834  0.21033  1.0000
  H   H29       1.0  0.78897  0.48468  0.21445  1.0000
  H   H30       1.0  0.68608  0.48070  0.29648  1.0000
  H   H31       1.0  0.86304  0.67024  0.27057  1.0000
  H   H32       1.0  0.88550  0.71852  0.26993  1.0000
  H   H33       1.0  0.64067  0.44369  0.28704  1.0000
  H   H34       1.0  0.81627  0.62728  0.28113  1.0000
  H   H35       1.0  0.80640  0.53361  0.25951  1.0000
  H   H36       1.0  0.70952  0.54363  0.29926  1.0000
  N   N1        1.0  0.22382  0.12084  0.26832  1.0000
  C   C53       1.0  0.19637  0.10761  0.25919  1.0000
  C   C54       1.0  0.18063  0.08898  0.32727  1.0000
  C   C55       1.0  0.18501  0.11230  0.17671  1.0000
  H   H37       1.0  0.20108  0.12563  0.13072  1.0000
  H   H38       1.0  0.17301  0.12183  0.19254  1.0000
  H   H39       1.0  0.17218  0.09305  0.14284  1.0000
  N   N2        1.0  0.86784  0.10346  0.26760  1.0000
  C   C56       1.0  0.88111  0.08927  0.25837  1.0000
  C   C57       1.0  0.89961  0.09204  0.32668  1.0000
  C   C58       1.0  0.87654  0.07336  0.17562  1.0000
  H   H40       1.0  0.86328  0.07617  0.12954  1.0000
  H   H41       1.0  0.86700  0.05180  0.19108  1.0000
  H   H42       1.0  0.89584  0.07984  0.14203  1.0000
  N   N3        1.0  0.88518  0.76481  0.26779  1.0000
  C   C59       1.0  0.89940  0.79227  0.25853  1.0000
  C   C60       1.0  0.89653  0.80803  0.32656  1.0000
  C   C61       1.0  0.91546  0.80361  0.17606  1.0000
  H   H43       1.0  0.91272  0.78752  0.13013  1.0000
  H   H44       1.0  0.93698  0.81562  0.19191  1.0000
  H   H45       1.0  0.90904  0.81643  0.14210  1.0000
  C   C62       1.0  0.59571  0.15434  0.30761  1.0000
  N   N4        1.0  0.55932  0.15881  0.24743  1.0000
  C   C63       1.0  0.58317  0.15943  0.23469  1.0000
  H   H46       1.0  0.59198  0.16449  0.17304  1.0000
  C   C64       1.0  0.83428  0.44177  0.30747  1.0000
  N   N5        1.0  0.82986  0.40090  0.24744  1.0000
  C   C65       1.0  0.82925  0.42413  0.23458  1.0000
  H   H47       1.0  0.82427  0.42790  0.17283  1.0000
  C   C66       1.0  0.54675  0.39288  0.30749  1.0000
  N   N6        1.0  0.58767  0.42924  0.24740  1.0000
  C   C67       1.0  0.56441  0.40541  0.23462  1.0000
  H   H48       1.0  0.56065  0.39662  0.17294  1.0000
  C   C68       1.0  0.93812  0.85295  0.32536  1.0000
  C   C69       1.0  0.95082  0.88145  0.32584  1.0000
  C   C70       1.0  0.96711  0.93943  0.38208  1.0000
  C   C71       1.0  0.97933  0.96755  0.37902  1.0000
  C   C72       1.0  0.96383  0.98073  0.37964  1.0000
  C   C73       1.0  0.97642  0.00935  0.37912  1.0000
  C   C74       1.0  0.00509  0.02486  0.37989  1.0000
  C   C75       1.0  0.02111  0.01227  0.37930  1.0000
  C   C76       1.0  0.00794  0.98359  0.37982  1.0000
  C   C77       1.0  0.04923  0.02817  0.38254  1.0000
  C   C78       1.0  0.09416  0.04120  0.32959  1.0000
  C   C79       1.0  0.10723  0.06985  0.32656  1.0000
  C   C80       1.0  0.13572  0.08566  0.32607  1.0000
  C   C81       1.0  0.96052  0.02157  0.38220  1.0000
  C   C82       1.0  0.94749  0.05345  0.32907  1.0000
  C   C83       1.0  0.95984  0.08204  0.33181  1.0000
  C   C84       1.0  0.94397  0.09467  0.33175  1.0000
  H   H49       1.0  0.95000  0.84414  0.32508  1.0000
  H   H50       1.0  0.97157  0.89257  0.32354  1.0000
  H   H51       1.0  0.01937  0.97424  0.38149  1.0000
  H   H52       1.0  0.94306  0.96930  0.38117  1.0000
  H   H53       1.0  0.01443  0.04563  0.38159  1.0000
  H   H54       1.0  0.14453  0.10635  0.32573  1.0000
  H   H55       1.0  0.09611  0.07948  0.32417  1.0000
  H   H56       1.0  0.95354  0.11542  0.33345  1.0000
  H   H57       1.0  0.98053  0.09395  0.33413  1.0000
  H   H58       1.0  0.05707  0.04298  0.42773  1.0000
  H   H59       1.0  0.97403  0.93156  0.42730  1.0000
  H   H60       1.0  0.94566  0.01456  0.42722  1.0000
  C   C85       1.0  0.50121  0.35846  0.36141  1.0000
  C   C86       1.0  0.47952  0.33149  0.36407  1.0000
  C   C87       1.0  0.45229  0.27034  0.39424  1.0000
  C   C88       1.0  0.43880  0.24230  0.39733  1.0000
  C   C89       1.0  0.45423  0.22917  0.40310  1.0000
  C   C90       1.0  0.44155  0.20060  0.40787  1.0000
  C   C91       1.0  0.41291  0.18512  0.40825  1.0000
  C   C92       1.0  0.39710  0.19791  0.40265  1.0000
  C   C93       1.0  0.41022  0.22656  0.39747  1.0000
  C   C94       1.0  0.36909  0.18243  0.40678  1.0000
  C   C95       1.0  0.32462  0.16423  0.34009  1.0000
  C   C96       1.0  0.31070  0.13801  0.37841  1.0000
  C   C97       1.0  0.28217  0.12282  0.37851  1.0000
  C   C98       1.0  0.45782  0.18891  0.41304  1.0000
  C   C99       1.0  0.47904  0.16664  0.34421  1.0000
  C   C100      1.0  0.47533  0.14088  0.36651  1.0000
  C   C101      1.0  0.49718  0.13589  0.36073  1.0000
  H   H61       1.0  0.50042  0.37245  0.40238  1.0000
  H   H62       1.0  0.46375  0.32667  0.40697  1.0000
  H   H63       1.0  0.39893  0.23603  0.39484  1.0000
  H   H64       1.0  0.47503  0.24061  0.40316  1.0000
  H   H65       1.0  0.40355  0.16438  0.41300  1.0000
  H   H66       1.0  0.27304  0.10374  0.40537  1.0000
  H   H67       1.0  0.32123  0.12953  0.40572  1.0000
  H   H68       1.0  0.49392  0.11699  0.37636  1.0000
  H   H69       1.0  0.45680  0.12567  0.38762  1.0000
  H   H70       1.0  0.36104  0.17290  0.46396  1.0000
  H   H71       1.0  0.45999  0.28013  0.45135  1.0000
  H   H72       1.0  0.47241  0.19629  0.45910  1.0000
  C   C102      1.0  0.63016  0.14326  0.36160  1.0000
  C   C103      1.0  0.65713  0.14859  0.36432  1.0000
  C   C104      1.0  0.71826  0.18240  0.39441  1.0000
  C   C105      1.0  0.74630  0.19692  0.39751  1.0000
  C   C106      1.0  0.75947  0.22548  0.40324  1.0000
  C   C107      1.0  0.78803  0.24132  0.40792  1.0000
  C   C108      1.0  0.80347  0.22812  0.40826  1.0000
  C   C109      1.0  0.79063  0.19950  0.40272  1.0000
  C   C110      1.0  0.76199  0.18401  0.39757  1.0000
  C   C111      1.0  0.80606  0.18692  0.40680  1.0000
  C   C112      1.0  0.82432  0.16074  0.33983  1.0000
  C   C113      1.0  0.85049  0.17298  0.37855  1.0000
  C   C114      1.0  0.86568  0.15964  0.37854  1.0000
  C   C115      1.0  0.79977  0.26929  0.41299  1.0000
  C   C116      1.0  0.82209  0.31280  0.34434  1.0000
  C   C117      1.0  0.84776  0.33486  0.36721  1.0000
  C   C118      1.0  0.85270  0.36169  0.36143  1.0000
  H   H73       1.0  0.61618  0.12848  0.40257  1.0000
  H   H74       1.0  0.66196  0.13763  0.40720  1.0000
  H   H75       1.0  0.75248  0.16324  0.39499  1.0000
  H   H76       1.0  0.74807  0.23489  0.40331  1.0000
  H   H77       1.0  0.82420  0.23945  0.41294  1.0000
  H   H78       1.0  0.88471  0.16954  0.40574  1.0000
  H   H79       1.0  0.85893  0.19195  0.40618  1.0000
  H   H80       1.0  0.87155  0.37734  0.37740  1.0000
  H   H81       1.0  0.86295  0.33157  0.38869  1.0000
  H   H82       1.0  0.81550  0.18830  0.46407  1.0000
  H   H83       1.0  0.70848  0.18023  0.45159  1.0000
  H   H84       1.0  0.79252  0.27658  0.45928  1.0000
  C   C119      1.0  0.84527  0.48730  0.36123  1.0000
  C   C120      1.0  0.83987  0.50891  0.36382  1.0000
  C   C121      1.0  0.80604  0.53621  0.39391  1.0000
  C   C122      1.0  0.79157  0.54976  0.39730  1.0000
  C   C123      1.0  0.76302  0.53438  0.40308  1.0000
  C   C124      1.0  0.74718  0.54711  0.40798  1.0000
  C   C125      1.0  0.76039  0.57576  0.40844  1.0000
  C   C126      1.0  0.78899  0.59153  0.40285  1.0000
  C   C127      1.0  0.80447  0.57836  0.39755  1.0000
  C   C128      1.0  0.80158  0.61955  0.40694  1.0000
  C   C129      1.0  0.82782  0.66401  0.34005  1.0000
  C   C130      1.0  0.81552  0.67793  0.37834  1.0000
  C   C131      1.0  0.82885  0.70648  0.37831  1.0000
  C   C132      1.0  0.71923  0.53087  0.41306  1.0000
  C   C133      1.0  0.67575  0.50959  0.34415  1.0000
  C   C134      1.0  0.65369  0.51326  0.36657  1.0000
  C   C135      1.0  0.62686  0.49138  0.36081  1.0000
  H   H85       1.0  0.86005  0.48815  0.40225  1.0000
  H   H86       1.0  0.85078  0.52471  0.40673  1.0000
  H   H87       1.0  0.82524  0.58963  0.39487  1.0000
  H   H88       1.0  0.75361  0.51357  0.40303  1.0000
  H   H89       1.0  0.74906  0.58515  0.41323  1.0000
  H   H90       1.0  0.81890  0.71561  0.40512  1.0000
  H   H91       1.0  0.79652  0.66740  0.40573  1.0000
  H   H92       1.0  0.61122  0.49462  0.37646  1.0000
  H   H93       1.0  0.65699  0.53179  0.38769  1.0000
  H   H94       1.0  0.80013  0.62762  0.46413  1.0000
  H   H95       1.0  0.80858  0.52892  0.45124  1.0000
  H   H96       1.0  0.71197  0.51633  0.45935  1.0000
  C   C136      1.0  0.23752  0.11775  0.33758  1.0000
  N   N7        1.0  0.19410  0.08551  0.39634  1.0000
  C   C137      1.0  0.22150  0.09892  0.40413  1.0000
  H   H97       1.0  0.22993  0.09553  0.45927  1.0000
  C   C138      1.0  0.87080  0.12011  0.33716  1.0000
  N   N8        1.0  0.90296  0.10885  0.39606  1.0000
  C   C139      1.0  0.88951  0.12280  0.40395  1.0000
  H   H98       1.0  0.89281  0.13453  0.45930  1.0000
  C   C140      1.0  0.86840  0.75113  0.33710  1.0000
  N   N9        1.0  0.87959  0.79458  0.39568  1.0000
  C   C141      1.0  0.86560  0.76718  0.40355  1.0000
  H   H99       1.0  0.85380  0.75877  0.45877  1.0000
  N   N10       1.0  0.58190  0.14786  0.38632  1.0000
  C   C142      1.0  0.55744  0.14618  0.39963  1.0000
  C   C143      1.0  0.54568  0.15240  0.32630  1.0000
  C   C144      1.0  0.54615  0.14051  0.49110  1.0000
  H   H100      1.0  0.55973  0.13843  0.53780  1.0000
  H   H101      1.0  0.52675  0.12163  0.49202  1.0000
  H   H102      1.0  0.54322  0.15706  0.51424  1.0000
  N   N11       1.0  0.84065  0.43441  0.38630  1.0000
  C   C145      1.0  0.84230  0.41161  0.39978  1.0000
  C   C146      1.0  0.83616  0.39363  0.32646  1.0000
  C   C147      1.0  0.84789  0.40598  0.49136  1.0000
  H   H103      1.0  0.84990  0.42163  0.53801  1.0000
  H   H104      1.0  0.86679  0.40550  0.49255  1.0000
  H   H105      1.0  0.83135  0.38649  0.51436  1.0000
  N   N12       1.0  0.55410  0.40667  0.38624  1.0000
  C   C148      1.0  0.57692  0.43111  0.39965  1.0000
  C   C149      1.0  0.59492  0.44285  0.32635  1.0000
  C   C150      1.0  0.58254  0.44240  0.49113  1.0000
  H   H106      1.0  0.56686  0.42881  0.53780  1.0000
  H   H107      1.0  0.58308  0.46181  0.49206  1.0000
  H   H108      1.0  0.60200  0.44531  0.51429  1.0000
