data_image0
_chemical_formula_structural       C2H2NC6H6C4HNO2C2H2C2HC2H2NO2C12H6C7H3NO2C5HNOCH2C3OCHNO2C2HNO2NC18H10CH2C4H2
_chemical_formula_sum              "C72 H42 N8 O12"
_cell_length_a       32.199
_cell_length_b       32.199
_cell_length_c       14.4803
_cell_angle_alpha    90
_cell_angle_beta     90
_cell_angle_gamma    120

_space_group_name_H-M_alt    "P 1"
_space_group_IT_number       1

loop_
  _space_group_symop_operation_xyz
  'x, y, z'

loop_
  _atom_site_type_symbol
  _atom_site_label
  _atom_site_symmetry_multiplicity
  _atom_site_fract_x
  _atom_site_fract_y
  _atom_site_fract_z
  _atom_site_occupancy
  C   C1        1.0  0.12834  0.55743  0.28836  1.0000
  C   C2        1.0  0.07786  0.53201  0.28859  1.0000
  H   H1        1.0  0.14558  0.55737  0.22905  1.0000
  H   H2        1.0  0.06015  0.51507  0.22935  1.0000
  N   N1        1.0  0.36025  0.68462  0.36740  1.0000
  C   C3        1.0  0.30928  0.65896  0.36757  1.0000
  C   C4        1.0  0.28358  0.63084  0.44428  1.0000
  C   C5        1.0  0.23304  0.60539  0.44434  1.0000
  C   C6        1.0  0.20643  0.60728  0.36798  1.0000
  C   C7        1.0  0.23277  0.63575  0.29137  1.0000
  C   C8        1.0  0.28331  0.66109  0.29104  1.0000
  H   H3        1.0  0.36356  0.62885  0.23473  1.0000
  H   H4        1.0  0.30164  0.62864  0.50041  1.0000
  H   H5        1.0  0.21587  0.58467  0.50059  1.0000
  H   H6        1.0  0.36293  0.74323  0.50044  1.0000
  H   H7        1.0  0.30118  0.68135  0.23477  1.0000
  H   H8        1.0  0.21538  0.63908  0.23524  1.0000
  C   C9        1.0  0.05191  0.52973  0.36893  1.0000
  C   C10       1.0  0.07758  0.55325  0.45012  1.0000
  C   C11       1.0  0.12845  0.57874  0.44855  1.0000
  C   C12       1.0  0.15487  0.58146  0.36824  1.0000
  H   H9        1.0  0.14626  0.59606  0.50739  1.0000
  N   N2        1.0  0.05188  0.54980  0.53186  1.0000
  O   O1        1.0  0.06103  0.59040  0.56015  1.0000
  O   O2        1.0  0.06138  0.52911  0.59512  1.0000
  C   C13       1.0  0.48748  0.57993  0.28838  1.0000
  C   C14       1.0  0.51289  0.55487  0.28862  1.0000
  H   H10       1.0  0.48756  0.59725  0.22910  1.0000
  H   H11       1.0  0.52986  0.55412  0.22940  1.0000
  C   C15       1.0  0.51355  0.07006  0.36565  1.0000
  C   C16       1.0  0.53992  0.12093  0.36651  1.0000
  H   H12       1.0  0.52163  0.13935  0.36565  1.0000
  C   C17       1.0  0.46496  0.91653  0.28838  1.0000
  C   C18       1.0  0.49001  0.96700  0.28862  1.0000
  H   H13       1.0  0.44764  0.89929  0.22909  1.0000
  H   H14       1.0  0.49077  0.98472  0.22940  1.0000
  N   N3        1.0  0.46278  0.04465  0.36459  1.0000
  O   O3        1.0  0.44684  0.05414  0.29329  1.0000
  O   O4        1.0  0.44585  0.05415  0.43437  1.0000
  C   C19       1.0  0.38591  0.65930  0.36756  1.0000
  C   C20       1.0  0.38556  0.73558  0.36757  1.0000
  C   C21       1.0  0.41400  0.66169  0.44429  1.0000
  C   C22       1.0  0.43945  0.63660  0.44436  1.0000
  C   C23       1.0  0.43758  0.60812  0.36798  1.0000
  C   C24       1.0  0.40913  0.60602  0.29135  1.0000
  C   C25       1.0  0.38380  0.63122  0.29102  1.0000
  C   C26       1.0  0.41365  0.76156  0.29102  1.0000
  C   C27       1.0  0.43884  0.81209  0.29135  1.0000
  C   C28       1.0  0.43675  0.83844  0.36798  1.0000
  C   C29       1.0  0.40824  0.81182  0.44435  1.0000
  C   C30       1.0  0.38317  0.76129  0.44429  1.0000
  H   H15       1.0  0.46015  0.64012  0.50063  1.0000
  H   H16       1.0  0.41619  0.68193  0.50045  1.0000
  H   H17       1.0  0.40583  0.58533  0.23519  1.0000
  H   H18       1.0  0.41603  0.74369  0.23475  1.0000
  H   H19       1.0  0.45956  0.82948  0.23522  1.0000
  H   H20       1.0  0.40474  0.82900  0.50064  1.0000
  C   C31       1.0  0.54120  0.43000  0.36641  1.0000
  C   C32       1.0  0.51640  0.45568  0.36764  1.0000
  C   C33       1.0  0.54150  0.50638  0.36696  1.0000
  C   C34       1.0  0.51513  0.53115  0.36893  1.0000
  C   C35       1.0  0.49156  0.53326  0.45009  1.0000
  C   C36       1.0  0.46607  0.55864  0.44853  1.0000
  C   C37       1.0  0.46340  0.58238  0.36824  1.0000
  H   H21       1.0  0.44872  0.55910  0.50734  1.0000
  H   H22       1.0  0.52189  0.39331  0.36739  1.0000
  H   H23       1.0  0.47971  0.43695  0.36852  1.0000
  N   N4        1.0  0.49496  0.51096  0.53180  1.0000
  O   O5        1.0  0.45435  0.47949  0.55998  1.0000
  O   O6        1.0  0.51560  0.54110  0.59514  1.0000
  C   C38       1.0  0.53848  0.04409  0.36697  1.0000
  C   C39       1.0  0.51371  0.99295  0.36894  1.0000
  C   C40       1.0  0.51159  0.96728  0.45011  1.0000
  C   C41       1.0  0.48621  0.91641  0.44854  1.0000
  C   C42       1.0  0.46248  0.89000  0.36824  1.0000
  H   H24       1.0  0.48574  0.89860  0.50736  1.0000
  N   N5        1.0  0.53387  0.99298  0.53183  1.0000
  O   O7        1.0  0.50372  0.98348  0.59514  1.0000
  C   C43       1.0  0.59240  0.53131  0.36559  1.0000
  H   H25       1.0  0.58724  0.39005  0.24254  1.0000
  H   H26       1.0  0.58672  0.20602  0.49188  1.0000
  C   C44       1.0  0.59184  0.45424  0.36661  1.0000
  C   C45       1.0  0.59062  0.14658  0.36662  1.0000
  C   C46       1.0  0.58919  0.06970  0.36762  1.0000
  O   O8        1.0  0.56534  0.98383  0.56004  1.0000
  C   C47       1.0  0.61690  0.50495  0.36645  1.0000
  H   H27       1.0  0.65360  0.52323  0.36557  1.0000
  N   N6        1.0  0.61776  0.58208  0.36448  1.0000
  O   O9        1.0  0.64317  0.59800  0.29316  1.0000
  O   O10       1.0  0.64421  0.59903  0.43423  1.0000
  C   C48       1.0  0.97480  0.45246  0.36563  1.0000
  C   C49       1.0  0.92393  0.42797  0.36650  1.0000
  H   H28       1.0  0.90551  0.39126  0.36563  1.0000
  N   N7        1.0  0.00021  0.42710  0.36456  1.0000
  O   O11       1.0  0.99072  0.40168  0.29326  1.0000
  O   O12       1.0  0.99071  0.40066  0.43433  1.0000
  N   N8        1.0  0.69359  0.35128  0.36793  1.0000
  C   C50       1.0  0.66801  0.37681  0.36778  1.0000
  C   C51       1.0  0.66806  0.30018  0.36779  1.0000
  C   C52       1.0  0.74469  0.37686  0.36779  1.0000
  C   C53       1.0  0.77053  0.40896  0.29556  1.0000
  C   C54       1.0  0.82107  0.43468  0.29596  1.0000
  C   C55       1.0  0.84716  0.42784  0.36717  1.0000
  C   C56       1.0  0.82116  0.39517  0.43881  1.0000
  C   C57       1.0  0.77063  0.37060  0.43982  1.0000
  C   C58       1.0  0.63591  0.37055  0.29556  1.0000
  C   C59       1.0  0.61021  0.39540  0.29592  1.0000
  C   C60       1.0  0.61703  0.42830  0.36716  1.0000
  C   C61       1.0  0.64969  0.43496  0.43881  1.0000
  C   C62       1.0  0.67428  0.40902  0.43980  1.0000
  C   C63       1.0  0.63586  0.27424  0.43982  1.0000
  C   C64       1.0  0.60989  0.22371  0.43880  1.0000
  C   C65       1.0  0.61656  0.19770  0.36717  1.0000
  C   C66       1.0  0.64948  0.22379  0.29594  1.0000
  C   C67       1.0  0.67431  0.27433  0.29557  1.0000
  H   H29       1.0  0.63080  0.34747  0.24260  1.0000
  H   H30       1.0  0.69730  0.41415  0.49288  1.0000
  H   H31       1.0  0.65518  0.45814  0.49187  1.0000
  H   H32       1.0  0.75257  0.41406  0.24259  1.0000
  H   H33       1.0  0.83870  0.45761  0.24253  1.0000
  H   H34       1.0  0.63071  0.29213  0.49287  1.0000
  H   H35       1.0  0.65482  0.20617  0.24256  1.0000
  H   H36       1.0  0.69739  0.29230  0.24260  1.0000
  H   H37       1.0  0.75274  0.34757  0.49288  1.0000
  H   H38       1.0  0.83886  0.38969  0.49188  1.0000
  C   C68       1.0  0.61486  0.12017  0.36638  1.0000
  H   H39       1.0  0.65155  0.13755  0.36733  1.0000
  H   H40       1.0  0.60791  0.05173  0.36846  1.0000
  C   C69       1.0  0.89828  0.45302  0.36661  1.0000
  C   C70       1.0  0.92470  0.50367  0.36637  1.0000
  C   C71       1.0  0.97517  0.52846  0.36761  1.0000
  C   C72       1.0  0.00077  0.50336  0.36696  1.0000
  H   H41       1.0  0.90732  0.52299  0.36733  1.0000
  H   H42       1.0  0.99314  0.56516  0.36846  1.0000
