data_image0
_chemical_formula_structural       C3H2NC2HNC2HNCNCNCNC3H4C5N2O4CNO2C3H2NC2HNC2HNCNCNCNC3H4C5N2O4CNO2N2CHCNCNCNC3H2CN2O4NCNO2NCHCNCNCNC3H2CN2O4NCNO2NCHC2HC3HNCHCNO2C2HNCHCNO2C3H2NC3H2NCHCNCNCNC2H2CNCNCNC3H3C3N2O4NC3N2O4NC2NO2NC3H2NC3H2NCHCNCNCNC2H2CNCNCNC3H3C3N2O4NC3N2O4NC2NO2N
_chemical_formula_sum              "C120 H48 N72 O48"
_cell_length_a       45.351
_cell_length_b       45.351
_cell_length_c       14.5981
_cell_angle_alpha    90
_cell_angle_beta     90
_cell_angle_gamma    120

_space_group_name_H-M_alt    "P 1"
_space_group_IT_number       1

loop_
  _space_group_symop_operation_xyz
  'x, y, z'

loop_
  _atom_site_type_symbol
  _atom_site_label
  _atom_site_symmetry_multiplicity
  _atom_site_fract_x
  _atom_site_fract_y
  _atom_site_fract_z
  _atom_site_occupancy
  C   C1        1.0  0.25605  0.28552  0.39768  1.0000
  C   C2        1.0  0.23928  0.24962  0.39238  1.0000
  C   C3        1.0  0.25731  0.23172  0.39269  1.0000
  H   H1        1.0  0.24382  0.20579  0.38822  1.0000
  H   H2        1.0  0.21330  0.23590  0.38770  1.0000
  N   N1        1.0  0.23532  0.29951  0.39603  1.0000
  C   C4        1.0  0.24889  0.47741  0.39768  1.0000
  C   C5        1.0  0.28480  0.49655  0.39237  1.0000
  H   H3        1.0  0.29851  0.48428  0.38768  1.0000
  N   N2        1.0  0.23490  0.44269  0.39603  1.0000
  C   C6        1.0  0.05700  0.27836  0.39768  1.0000
  C   C7        1.0  0.03786  0.29513  0.39237  1.0000
  H   H4        1.0  0.05014  0.32112  0.38769  1.0000
  N   N3        1.0  0.09173  0.29910  0.39603  1.0000
  C   C8        1.0  0.19564  0.38080  0.39610  1.0000
  N   N4        1.0  0.16245  0.35519  0.39615  1.0000
  C   C9        1.0  0.15362  0.32173  0.39610  1.0000
  N   N5        1.0  0.17923  0.31415  0.39616  1.0000
  C   C10       1.0  0.21269  0.33877  0.39610  1.0000
  N   N6        1.0  0.22027  0.37196  0.39615  1.0000
  C   C11       1.0  0.23944  0.33141  0.39680  1.0000
  C   C12       1.0  0.20301  0.41492  0.39679  1.0000
  C   C13       1.0  0.11950  0.29497  0.39680  1.0000
  H   H5        1.0  0.11593  0.27097  0.39712  1.0000
  H   H6        1.0  0.18257  0.41848  0.39712  1.0000
  H   H7        1.0  0.26344  0.35184  0.39711  1.0000
  H   H8        1.0  0.27965  0.18111  0.39453  1.0000
  C   C14       1.0  0.29321  0.24904  0.39833  1.0000
  C   C15       1.0  0.29227  0.30329  0.40438  1.0000
  C   C16       1.0  0.28537  0.05105  0.39833  1.0000
  C   C17       1.0  0.24920  0.03230  0.40446  1.0000
  C   C18       1.0  0.23112  0.49586  0.40440  1.0000
  N   N7        1.0  0.22973  0.04883  0.41174  1.0000
  N   N8        1.0  0.19527  0.47723  0.41269  1.0000
  O   O1        1.0  0.23312  0.06691  0.34292  1.0000
  O   O2        1.0  0.18042  0.48235  0.34718  1.0000
  O   O3        1.0  0.23666  0.06659  0.48309  1.0000
  O   O4        1.0  0.18500  0.48248  0.48756  1.0000
  C   C19       1.0  0.03856  0.24215  0.40439  1.0000
  N   N9        1.0  0.05719  0.22493  0.41266  1.0000
  O   O5        1.0  0.05206  0.20495  0.34715  1.0000
  O   O6        1.0  0.05193  0.20940  0.48754  1.0000
  C   C20       1.0  0.25605  0.78552  0.39768  1.0000
  C   C21       1.0  0.23928  0.74961  0.39238  1.0000
  C   C22       1.0  0.25731  0.73172  0.39269  1.0000
  H   H9        1.0  0.24382  0.70579  0.38822  1.0000
  H   H10       1.0  0.21330  0.73590  0.38770  1.0000
  N   N10       1.0  0.23532  0.79951  0.39603  1.0000
  C   C23       1.0  0.24889  0.97741  0.39768  1.0000
  C   C24       1.0  0.28480  0.99655  0.39237  1.0000
  H   H11       1.0  0.29851  0.98428  0.38768  1.0000
  N   N11       1.0  0.23490  0.94269  0.39603  1.0000
  C   C25       1.0  0.05700  0.77836  0.39768  1.0000
  C   C26       1.0  0.03787  0.79513  0.39237  1.0000
  H   H12       1.0  0.05014  0.82112  0.38769  1.0000
  N   N12       1.0  0.09173  0.79909  0.39603  1.0000
  C   C27       1.0  0.19564  0.88080  0.39610  1.0000
  N   N13       1.0  0.16245  0.85519  0.39615  1.0000
  C   C28       1.0  0.15362  0.82172  0.39610  1.0000
  N   N14       1.0  0.17922  0.81414  0.39616  1.0000
  C   C29       1.0  0.21269  0.83877  0.39610  1.0000
  N   N15       1.0  0.22027  0.87196  0.39615  1.0000
  C   C30       1.0  0.23944  0.83141  0.39680  1.0000
  C   C31       1.0  0.20301  0.91492  0.39679  1.0000
  C   C32       1.0  0.11950  0.79497  0.39680  1.0000
  H   H13       1.0  0.11593  0.77097  0.39712  1.0000
  H   H14       1.0  0.18258  0.91848  0.39712  1.0000
  H   H15       1.0  0.26344  0.85184  0.39711  1.0000
  H   H16       1.0  0.27965  0.68110  0.39453  1.0000
  C   C33       1.0  0.29321  0.74904  0.39833  1.0000
  C   C34       1.0  0.29227  0.80329  0.40438  1.0000
  C   C35       1.0  0.28537  0.55105  0.39833  1.0000
  C   C36       1.0  0.24920  0.53230  0.40446  1.0000
  C   C37       1.0  0.23113  0.99586  0.40440  1.0000
  N   N16       1.0  0.22973  0.54883  0.41174  1.0000
  N   N17       1.0  0.19527  0.97723  0.41269  1.0000
  O   O7        1.0  0.23312  0.56691  0.34292  1.0000
  O   O8        1.0  0.18042  0.98235  0.34718  1.0000
  O   O9        1.0  0.23666  0.56659  0.48309  1.0000
  O   O10       1.0  0.18500  0.98249  0.48756  1.0000
  C   C38       1.0  0.03856  0.74215  0.40439  1.0000
  N   N18       1.0  0.05719  0.72493  0.41266  1.0000
  O   O11       1.0  0.05206  0.70495  0.34715  1.0000
  O   O12       1.0  0.05193  0.70940  0.48754  1.0000
  N   N19       1.0  0.30151  0.08585  0.39844  1.0000
  N   N20       1.0  0.30151  0.58585  0.39844  1.0000
  C   C39       1.0  0.30269  0.03247  0.39268  1.0000
  H   H17       1.0  0.32862  0.04492  0.38821  1.0000
  C   C40       1.0  0.34394  0.14625  0.39604  1.0000
  N   N21       1.0  0.37760  0.17064  0.39600  1.0000
  C   C41       1.0  0.38816  0.20457  0.39603  1.0000
  N   N22       1.0  0.36378  0.21384  0.39600  1.0000
  C   C42       1.0  0.32984  0.19047  0.39603  1.0000
  N   N23       1.0  0.32057  0.15682  0.39601  1.0000
  C   C43       1.0  0.30459  0.19999  0.39577  1.0000
  C   C44       1.0  0.33443  0.11148  0.39578  1.0000
  C   C45       1.0  0.42293  0.22983  0.39576  1.0000
  H   H18       1.0  0.42899  0.25477  0.39451  1.0000
  H   H19       1.0  0.35331  0.10543  0.39452  1.0000
  C   C46       1.0  0.31063  0.28522  0.40444  1.0000
  N   N24       1.0  0.34663  0.30468  0.41170  1.0000
  N   N25       1.0  0.30949  0.33915  0.41265  1.0000
  O   O13       1.0  0.36131  0.30129  0.34288  1.0000
  O   O14       1.0  0.32947  0.35400  0.34713  1.0000
  O   O15       1.0  0.35747  0.29776  0.48305  1.0000
  O   O16       1.0  0.32502  0.34942  0.48752  1.0000
  N   N26       1.0  0.31187  0.23290  0.39842  1.0000
  C   C47       1.0  0.48336  0.24121  0.39832  1.0000
  N   N27       1.0  0.48558  0.18779  0.41171  1.0000
  O   O17       1.0  0.46751  0.17310  0.34290  1.0000
  O   O18       1.0  0.46782  0.17694  0.48306  1.0000
  N   N28       1.0  0.44857  0.22255  0.39842  1.0000
  C   C48       1.0  0.30269  0.53246  0.39268  1.0000
  H   H20       1.0  0.32862  0.54492  0.38821  1.0000
  C   C49       1.0  0.34394  0.64625  0.39604  1.0000
  N   N29       1.0  0.37760  0.67064  0.39600  1.0000
  C   C50       1.0  0.38816  0.70457  0.39603  1.0000
  N   N30       1.0  0.36378  0.71384  0.39600  1.0000
  C   C51       1.0  0.32984  0.69047  0.39603  1.0000
  N   N31       1.0  0.32057  0.65682  0.39601  1.0000
  C   C52       1.0  0.30459  0.69999  0.39577  1.0000
  C   C53       1.0  0.33443  0.61148  0.39578  1.0000
  C   C54       1.0  0.42293  0.72983  0.39576  1.0000
  H   H21       1.0  0.42899  0.75477  0.39451  1.0000
  H   H22       1.0  0.35331  0.60543  0.39452  1.0000
  C   C55       1.0  0.31063  0.78522  0.40444  1.0000
  N   N32       1.0  0.34663  0.80468  0.41170  1.0000
  N   N33       1.0  0.30949  0.83914  0.41265  1.0000
  O   O19       1.0  0.36131  0.80129  0.34288  1.0000
  O   O20       1.0  0.32946  0.85399  0.34713  1.0000
  O   O21       1.0  0.35747  0.79776  0.48305  1.0000
  O   O22       1.0  0.32502  0.84942  0.48752  1.0000
  N   N34       1.0  0.31187  0.73290  0.39842  1.0000
  C   C56       1.0  0.48336  0.74121  0.39832  1.0000
  N   N35       1.0  0.48559  0.68779  0.41171  1.0000
  O   O23       1.0  0.46751  0.67310  0.34290  1.0000
  O   O24       1.0  0.46782  0.67694  0.48306  1.0000
  N   N36       1.0  0.44857  0.72255  0.39842  1.0000
  C   C57       1.0  0.50195  0.27711  0.39268  1.0000
  H   H23       1.0  0.48950  0.29059  0.38821  1.0000
  C   C58       1.0  0.50212  0.22378  0.40445  1.0000
  C   C59       1.0  0.50195  0.77711  0.39268  1.0000
  H   H24       1.0  0.48950  0.79059  0.38821  1.0000
  C   C60       1.0  0.50212  0.72378  0.40445  1.0000
  C   C61       1.0  0.55700  0.27836  0.39768  1.0000
  C   C62       1.0  0.53786  0.29513  0.39237  1.0000
  H   H25       1.0  0.55014  0.32112  0.38769  1.0000
  N   N37       1.0  0.59173  0.29910  0.39603  1.0000
  C   C63       1.0  0.61950  0.29497  0.39680  1.0000
  H   H26       1.0  0.61593  0.27097  0.39712  1.0000
  C   C64       1.0  0.53856  0.24215  0.40439  1.0000
  N   N38       1.0  0.55719  0.22493  0.41266  1.0000
  O   O25       1.0  0.55206  0.20495  0.34715  1.0000
  O   O26       1.0  0.55193  0.20940  0.48754  1.0000
  C   C65       1.0  0.55700  0.77836  0.39768  1.0000
  C   C66       1.0  0.53786  0.79513  0.39237  1.0000
  H   H27       1.0  0.55014  0.82112  0.38769  1.0000
  N   N39       1.0  0.59173  0.79909  0.39603  1.0000
  C   C67       1.0  0.61950  0.79497  0.39680  1.0000
  H   H28       1.0  0.61593  0.77097  0.39712  1.0000
  C   C68       1.0  0.53855  0.74215  0.40439  1.0000
  N   N40       1.0  0.55719  0.72493  0.41266  1.0000
  O   O27       1.0  0.55206  0.70495  0.34715  1.0000
  O   O28       1.0  0.55193  0.70940  0.48754  1.0000
  C   C69       1.0  0.75605  0.28552  0.39768  1.0000
  C   C70       1.0  0.73928  0.24962  0.39238  1.0000
  C   C71       1.0  0.75730  0.23172  0.39269  1.0000
  H   H29       1.0  0.74382  0.20579  0.38822  1.0000
  H   H30       1.0  0.71330  0.23590  0.38770  1.0000
  N   N41       1.0  0.73532  0.29951  0.39603  1.0000
  C   C72       1.0  0.74889  0.47741  0.39768  1.0000
  C   C73       1.0  0.78480  0.49655  0.39237  1.0000
  C   C74       1.0  0.80269  0.03247  0.39268  1.0000
  H   H31       1.0  0.82862  0.04492  0.38821  1.0000
  H   H32       1.0  0.79851  0.48428  0.38768  1.0000
  N   N42       1.0  0.73490  0.44269  0.39603  1.0000
  C   C75       1.0  0.00195  0.27711  0.39268  1.0000
  H   H33       1.0  0.98950  0.29059  0.38821  1.0000
  C   C76       1.0  0.69564  0.38080  0.39610  1.0000
  N   N43       1.0  0.66245  0.35519  0.39615  1.0000
  C   C77       1.0  0.65361  0.32173  0.39610  1.0000
  N   N44       1.0  0.67923  0.31415  0.39616  1.0000
  C   C78       1.0  0.71269  0.33877  0.39610  1.0000
  N   N45       1.0  0.72027  0.37196  0.39615  1.0000
  C   C79       1.0  0.73944  0.33141  0.39680  1.0000
  C   C80       1.0  0.70301  0.41492  0.39679  1.0000
  H   H34       1.0  0.68257  0.41848  0.39712  1.0000
  H   H35       1.0  0.76344  0.35184  0.39711  1.0000
  C   C81       1.0  0.84394  0.14625  0.39604  1.0000
  N   N46       1.0  0.87760  0.17064  0.39600  1.0000
  C   C82       1.0  0.88816  0.20457  0.39603  1.0000
  N   N47       1.0  0.86378  0.21384  0.39600  1.0000
  C   C83       1.0  0.82984  0.19047  0.39603  1.0000
  N   N48       1.0  0.82057  0.15682  0.39601  1.0000
  C   C84       1.0  0.80459  0.19999  0.39577  1.0000
  C   C85       1.0  0.83443  0.11148  0.39578  1.0000
  C   C86       1.0  0.92293  0.22983  0.39576  1.0000
  H   H36       1.0  0.92899  0.25477  0.39451  1.0000
  H   H37       1.0  0.85331  0.10543  0.39452  1.0000
  H   H38       1.0  0.77965  0.18111  0.39453  1.0000
  C   C87       1.0  0.79321  0.24904  0.39833  1.0000
  C   C88       1.0  0.81063  0.28522  0.40444  1.0000
  C   C89       1.0  0.79227  0.30329  0.40438  1.0000
  N   N49       1.0  0.84663  0.30468  0.41170  1.0000
  N   N50       1.0  0.80949  0.33915  0.41265  1.0000
  O   O29       1.0  0.86131  0.30129  0.34288  1.0000
  O   O30       1.0  0.82947  0.35400  0.34713  1.0000
  O   O31       1.0  0.85747  0.29776  0.48305  1.0000
  O   O32       1.0  0.82502  0.34942  0.48752  1.0000
  N   N51       1.0  0.81187  0.23290  0.39842  1.0000
  C   C90       1.0  0.78537  0.05105  0.39833  1.0000
  C   C91       1.0  0.74920  0.03230  0.40446  1.0000
  C   C92       1.0  0.73112  0.49586  0.40440  1.0000
  N   N52       1.0  0.72973  0.04883  0.41174  1.0000
  N   N53       1.0  0.69527  0.47723  0.41269  1.0000
  O   O33       1.0  0.73312  0.06691  0.34292  1.0000
  O   O34       1.0  0.68041  0.48235  0.34718  1.0000
  O   O35       1.0  0.73665  0.06659  0.48309  1.0000
  O   O36       1.0  0.68500  0.48248  0.48756  1.0000
  N   N54       1.0  0.80151  0.08585  0.39844  1.0000
  C   C93       1.0  0.98336  0.24121  0.39832  1.0000
  C   C94       1.0  0.00212  0.22378  0.40445  1.0000
  N   N55       1.0  0.98558  0.18779  0.41171  1.0000
  O   O37       1.0  0.96751  0.17310  0.34290  1.0000
  O   O38       1.0  0.96782  0.17694  0.48306  1.0000
  N   N56       1.0  0.94857  0.22255  0.39842  1.0000
  C   C95       1.0  0.75605  0.78552  0.39768  1.0000
  C   C96       1.0  0.73928  0.74961  0.39238  1.0000
  C   C97       1.0  0.75730  0.73172  0.39269  1.0000
  H   H39       1.0  0.74382  0.70579  0.38822  1.0000
  H   H40       1.0  0.71330  0.73590  0.38770  1.0000
  N   N57       1.0  0.73532  0.79951  0.39603  1.0000
  C   C98       1.0  0.74889  0.97741  0.39768  1.0000
  C   C99       1.0  0.78480  0.99655  0.39237  1.0000
  C   C100      1.0  0.80269  0.53246  0.39268  1.0000
  H   H41       1.0  0.82862  0.54492  0.38821  1.0000
  H   H42       1.0  0.79851  0.98428  0.38768  1.0000
  N   N58       1.0  0.73490  0.94269  0.39603  1.0000
  C   C101      1.0  0.00195  0.77711  0.39268  1.0000
  H   H43       1.0  0.98950  0.79059  0.38821  1.0000
  C   C102      1.0  0.69564  0.88080  0.39610  1.0000
  N   N59       1.0  0.66245  0.85519  0.39615  1.0000
  C   C103      1.0  0.65361  0.82172  0.39610  1.0000
  N   N60       1.0  0.67922  0.81414  0.39616  1.0000
  C   C104      1.0  0.71269  0.83877  0.39610  1.0000
  N   N61       1.0  0.72027  0.87196  0.39615  1.0000
  C   C105      1.0  0.73944  0.83141  0.39680  1.0000
  C   C106      1.0  0.70301  0.91492  0.39679  1.0000
  H   H44       1.0  0.68257  0.91848  0.39712  1.0000
  H   H45       1.0  0.76344  0.85184  0.39711  1.0000
  C   C107      1.0  0.84394  0.64625  0.39604  1.0000
  N   N62       1.0  0.87760  0.67064  0.39600  1.0000
  C   C108      1.0  0.88816  0.70457  0.39603  1.0000
  N   N63       1.0  0.86378  0.71384  0.39600  1.0000
  C   C109      1.0  0.82984  0.69047  0.39603  1.0000
  N   N64       1.0  0.82057  0.65682  0.39601  1.0000
  C   C110      1.0  0.80459  0.69999  0.39577  1.0000
  C   C111      1.0  0.83443  0.61148  0.39578  1.0000
  C   C112      1.0  0.92293  0.72983  0.39576  1.0000
  H   H46       1.0  0.92899  0.75477  0.39451  1.0000
  H   H47       1.0  0.85331  0.60543  0.39452  1.0000
  H   H48       1.0  0.77965  0.68110  0.39453  1.0000
  C   C113      1.0  0.79321  0.74904  0.39833  1.0000
  C   C114      1.0  0.81063  0.78522  0.40444  1.0000
  C   C115      1.0  0.79227  0.80329  0.40438  1.0000
  N   N65       1.0  0.84663  0.80468  0.41170  1.0000
  N   N66       1.0  0.80949  0.83914  0.41265  1.0000
  O   O39       1.0  0.86131  0.80129  0.34288  1.0000
  O   O40       1.0  0.82946  0.85399  0.34713  1.0000
  O   O41       1.0  0.85747  0.79776  0.48305  1.0000
  O   O42       1.0  0.82502  0.84942  0.48752  1.0000
  N   N67       1.0  0.81186  0.73290  0.39842  1.0000
  C   C116      1.0  0.78537  0.55105  0.39833  1.0000
  C   C117      1.0  0.74920  0.53230  0.40446  1.0000
  C   C118      1.0  0.73112  0.99586  0.40440  1.0000
  N   N68       1.0  0.72973  0.54883  0.41174  1.0000
  N   N69       1.0  0.69527  0.97723  0.41269  1.0000
  O   O43       1.0  0.73312  0.56691  0.34292  1.0000
  O   O44       1.0  0.68042  0.98235  0.34718  1.0000
  O   O45       1.0  0.73666  0.56659  0.48309  1.0000
  O   O46       1.0  0.68500  0.98249  0.48756  1.0000
  N   N70       1.0  0.80151  0.58585  0.39844  1.0000
  C   C119      1.0  0.98336  0.74121  0.39832  1.0000
  C   C120      1.0  0.00211  0.72378  0.40445  1.0000
  N   N71       1.0  0.98559  0.68779  0.41171  1.0000
  O   O47       1.0  0.96751  0.67310  0.34290  1.0000
  O   O48       1.0  0.96782  0.67694  0.48306  1.0000
  N   N72       1.0  0.94857  0.72255  0.39842  1.0000
