data_image0
_chemical_formula_structural       C4H8C2H8C3HCH3NHC3HCH3NHC2HCH3NHC28H16CHCHCHC28H16CHCHCHC3HCH3NHC3HCH3NHC2HCH3NH
_chemical_formula_sum              "C90 H84 N6"
_cell_length_a       45.0507
_cell_length_b       45.0457
_cell_length_c       14.9877
_cell_angle_alpha    90
_cell_angle_beta     90
_cell_angle_gamma    120.001

_space_group_name_H-M_alt    "P 1"
_space_group_IT_number       1

loop_
  _space_group_symop_operation_xyz
  'x, y, z'

loop_
  _atom_site_type_symbol
  _atom_site_label
  _atom_site_symmetry_multiplicity
  _atom_site_fract_x
  _atom_site_fract_y
  _atom_site_fract_z
  _atom_site_occupancy
  C   C1        1.0  0.01786  0.50309  0.25199  1.0000
  C   C2        1.0  0.01899  0.50980  0.41410  1.0000
  C   C3        1.0  0.38932  0.81871  0.30220  1.0000
  C   C4        1.0  0.41036  0.85443  0.31130  1.0000
  H   H1        1.0  0.40012  0.86960  0.29656  1.0000
  H   H2        1.0  0.36446  0.80914  0.28194  1.0000
  H   H3        1.0  0.47027  0.60088  0.29654  1.0000
  H   H4        1.0  0.13142  0.53071  0.29656  1.0000
  H   H5        1.0  0.19187  0.55551  0.28199  1.0000
  H   H6        1.0  0.08689  0.57616  0.30804  1.0000
  H   H7        1.0  0.42485  0.51090  0.30807  1.0000
  H   H8        1.0  0.49009  0.91415  0.30807  1.0000
  C   C5        1.0  0.61191  0.18212  0.36609  1.0000
  C   C6        1.0  0.59085  0.14639  0.35702  1.0000
  H   H9        1.0  0.60110  0.13122  0.37179  1.0000
  H   H10       1.0  0.63675  0.19168  0.38641  1.0000
  H   H11       1.0  0.53095  0.39993  0.37177  1.0000
  H   H12       1.0  0.86983  0.47011  0.37176  1.0000
  H   H13       1.0  0.80938  0.44532  0.38639  1.0000
  H   H14       1.0  0.91106  0.43375  0.24695  1.0000
  H   H15       1.0  0.56727  0.47751  0.24695  1.0000
  H   H16       1.0  0.52351  0.08997  0.24694  1.0000
  C   C7        1.0  0.49791  0.51495  0.25199  1.0000
  C   C8        1.0  0.51000  0.49143  0.25420  1.0000
  C   C9        1.0  0.51290  0.47687  0.33498  1.0000
  H   H17       1.0  0.51667  0.48450  0.19575  1.0000
  C   C10       1.0  0.49546  0.52868  0.16378  1.0000
  H   H18       1.0  0.48588  0.54657  0.16813  1.0000
  H   H19       1.0  0.47817  0.50757  0.12044  1.0000
  H   H20       1.0  0.52075  0.54210  0.13268  1.0000
  N   N1        1.0  0.52486  0.45309  0.33425  1.0000
  H   H21       1.0  0.51051  0.43377  0.28982  1.0000
  C   C11       1.0  0.48606  0.98317  0.25201  1.0000
  C   C12       1.0  0.50958  0.01878  0.25421  1.0000
  C   C13       1.0  0.52414  0.03624  0.33500  1.0000
  H   H22       1.0  0.51651  0.03237  0.19576  1.0000
  C   C14       1.0  0.47232  0.96699  0.16379  1.0000
  H   H23       1.0  0.45443  0.93951  0.16815  1.0000
  H   H24       1.0  0.49343  0.97080  0.12046  1.0000
  H   H25       1.0  0.45891  0.97887  0.13268  1.0000
  N   N2        1.0  0.54792  0.07197  0.33426  1.0000
  H   H26       1.0  0.56725  0.07694  0.28983  1.0000
  C   C15       1.0  0.98225  0.49101  0.25419  1.0000
  C   C16       1.0  0.96479  0.48811  0.33498  1.0000
  H   H27       1.0  0.96866  0.48434  0.19574  1.0000
  C   C17       1.0  0.03403  0.50553  0.16377  1.0000
  H   H28       1.0  0.06151  0.51512  0.16813  1.0000
  H   H29       1.0  0.03023  0.52283  0.12043  1.0000
  H   H30       1.0  0.02216  0.48024  0.13268  1.0000
  N   N3        1.0  0.92907  0.47617  0.33424  1.0000
  H   H31       1.0  0.92410  0.49052  0.28981  1.0000
  C   C18       1.0  0.44476  0.86899  0.34035  1.0000
  C   C19       1.0  0.45753  0.84659  0.35807  1.0000
  C   C20       1.0  0.43661  0.81090  0.34855  1.0000
  C   C21       1.0  0.40197  0.79635  0.32183  1.0000
  C   C22       1.0  0.38056  0.76111  0.31293  1.0000
  C   C23       1.0  0.37843  0.73809  0.37355  1.0000
  C   C24       1.0  0.35636  0.70310  0.36571  1.0000
  C   C25       1.0  0.32044  0.68927  0.36633  1.0000
  C   C26       1.0  0.29790  0.65345  0.36582  1.0000
  C   C27       1.0  0.31172  0.63135  0.36639  1.0000
  C   C28       1.0  0.34754  0.64463  0.36581  1.0000
  C   C29       1.0  0.36964  0.68056  0.36630  1.0000
  C   C30       1.0  0.36048  0.62258  0.37365  1.0000
  C   C31       1.0  0.38135  0.62044  0.31302  1.0000
  C   C32       1.0  0.39519  0.59903  0.32191  1.0000
  C   C33       1.0  0.43019  0.61168  0.30226  1.0000
  C   C34       1.0  0.37510  0.56439  0.34863  1.0000
  C   C35       1.0  0.38986  0.54346  0.35812  1.0000
  C   C36       1.0  0.42503  0.55624  0.34037  1.0000
  C   C37       1.0  0.44487  0.59063  0.31130  1.0000
  C   C38       1.0  0.26292  0.64052  0.37365  1.0000
  C   C39       1.0  0.23990  0.61963  0.31304  1.0000
  C   C40       1.0  0.20466  0.60580  0.32193  1.0000
  C   C41       1.0  0.19012  0.62590  0.34863  1.0000
  C   C42       1.0  0.18231  0.57080  0.30228  1.0000
  C   C43       1.0  0.14658  0.55612  0.31132  1.0000
  C   C44       1.0  0.13203  0.57596  0.34037  1.0000
  C   C45       1.0  0.15443  0.61114  0.35811  1.0000
  H   H32       1.0  0.48238  0.85619  0.37831  1.0000
  H   H33       1.0  0.44695  0.79564  0.36154  1.0000
  H   H34       1.0  0.39565  0.69038  0.36931  1.0000
  H   H35       1.0  0.31062  0.70546  0.36932  1.0000
  H   H36       1.0  0.29554  0.60533  0.36941  1.0000
  H   H37       1.0  0.20538  0.65150  0.36163  1.0000
  H   H38       1.0  0.44548  0.63654  0.28195  1.0000
  H   H39       1.0  0.37461  0.51861  0.37837  1.0000
  H   H40       1.0  0.34949  0.55404  0.36164  1.0000
  H   H41       1.0  0.14483  0.62639  0.37835  1.0000
  H   H42       1.0  0.38841  0.63584  0.26005  1.0000
  H   H43       1.0  0.35361  0.60766  0.42750  1.0000
  H   H44       1.0  0.36514  0.75276  0.25999  1.0000
  H   H45       1.0  0.39334  0.74613  0.42739  1.0000
  H   H46       1.0  0.24825  0.61257  0.26008  1.0000
  H   H47       1.0  0.25488  0.64740  0.42750  1.0000
  C   C46       1.0  0.09448  0.56186  0.35264  1.0000
  H   H48       1.0  0.09017  0.56706  0.42135  1.0000
  C   C47       1.0  0.43914  0.53279  0.35265  1.0000
  H   H49       1.0  0.43395  0.52329  0.42136  1.0000
  C   C48       1.0  0.46821  0.90655  0.35266  1.0000
  H   H50       1.0  0.47770  0.91085  0.42137  1.0000
  C   C49       1.0  0.55646  0.13183  0.32794  1.0000
  C   C50       1.0  0.54370  0.15424  0.31020  1.0000
  C   C51       1.0  0.56463  0.18993  0.31970  1.0000
  C   C52       1.0  0.59926  0.20447  0.34645  1.0000
  C   C53       1.0  0.62067  0.23972  0.35535  1.0000
  C   C54       1.0  0.62281  0.26274  0.29475  1.0000
  C   C55       1.0  0.64487  0.29773  0.30261  1.0000
  C   C56       1.0  0.68079  0.31155  0.30212  1.0000
  C   C57       1.0  0.70333  0.34738  0.30266  1.0000
  C   C58       1.0  0.68951  0.36948  0.30210  1.0000
  C   C59       1.0  0.65369  0.35619  0.30260  1.0000
  C   C60       1.0  0.63159  0.32027  0.30204  1.0000
  C   C61       1.0  0.64076  0.37826  0.29478  1.0000
  C   C62       1.0  0.61989  0.38040  0.35541  1.0000
  C   C63       1.0  0.60605  0.40180  0.34649  1.0000
  C   C64       1.0  0.57105  0.38914  0.36612  1.0000
  C   C65       1.0  0.62614  0.43644  0.31976  1.0000
  C   C66       1.0  0.61136  0.45736  0.31025  1.0000
  C   C67       1.0  0.57619  0.44458  0.32797  1.0000
  C   C68       1.0  0.55636  0.41018  0.35703  1.0000
  C   C69       1.0  0.73832  0.36030  0.29480  1.0000
  C   C70       1.0  0.76134  0.38120  0.35537  1.0000
  C   C71       1.0  0.79658  0.39502  0.34646  1.0000
  C   C72       1.0  0.81112  0.37492  0.31974  1.0000
  C   C73       1.0  0.81894  0.43002  0.36609  1.0000
  C   C74       1.0  0.85466  0.44470  0.35702  1.0000
  C   C75       1.0  0.86921  0.42485  0.32795  1.0000
  C   C76       1.0  0.84680  0.38968  0.31024  1.0000
  H   H51       1.0  0.51885  0.14464  0.28995  1.0000
  H   H52       1.0  0.55428  0.20519  0.30671  1.0000
  H   H53       1.0  0.60558  0.31045  0.29901  1.0000
  H   H54       1.0  0.69061  0.29536  0.29904  1.0000
  H   H55       1.0  0.70570  0.39549  0.29906  1.0000
  H   H56       1.0  0.79585  0.34931  0.30676  1.0000
  H   H57       1.0  0.55576  0.36428  0.38641  1.0000
  H   H58       1.0  0.62661  0.48221  0.29001  1.0000
  H   H59       1.0  0.65174  0.44679  0.30679  1.0000
  H   H60       1.0  0.85639  0.37442  0.28999  1.0000
  H   H61       1.0  0.61282  0.36498  0.40836  1.0000
  H   H62       1.0  0.64763  0.39317  0.24093  1.0000
  H   H63       1.0  0.63607  0.24806  0.40834  1.0000
  H   H64       1.0  0.60791  0.25471  0.24089  1.0000
  H   H65       1.0  0.75300  0.38827  0.40834  1.0000
  H   H66       1.0  0.74634  0.35341  0.24095  1.0000
  C   C77       1.0  0.90676  0.43895  0.31566  1.0000
  H   H67       1.0  0.91435  0.42465  0.36025  1.0000
  C   C78       1.0  0.56208  0.46802  0.31567  1.0000
  H   H68       1.0  0.57636  0.48991  0.36024  1.0000
  C   C79       1.0  0.53301  0.09428  0.31566  1.0000
  H   H69       1.0  0.51113  0.08669  0.36024  1.0000
  C   C80       1.0  0.48830  0.52393  0.33332  1.0000
  C   C81       1.0  0.50330  0.48585  0.41631  1.0000
  C   C82       1.0  0.49120  0.50936  0.41411  1.0000
  H   H70       1.0  0.48454  0.51630  0.47256  1.0000
  C   C83       1.0  0.50575  0.47212  0.50453  1.0000
  H   H71       1.0  0.51534  0.45424  0.50018  1.0000
  H   H72       1.0  0.48046  0.45870  0.53563  1.0000
  H   H73       1.0  0.52305  0.49324  0.54786  1.0000
  N   N4        1.0  0.47635  0.54771  0.33406  1.0000
  H   H74       1.0  0.49071  0.56703  0.37849  1.0000
  C   C84       1.0  0.47707  0.96458  0.33333  1.0000
  C   C85       1.0  0.51515  0.01765  0.41632  1.0000
  C   C86       1.0  0.49163  0.98204  0.41412  1.0000
  H   H75       1.0  0.48470  0.96845  0.47257  1.0000
  C   C87       1.0  0.52889  0.03383  0.50454  1.0000
  H   H76       1.0  0.54678  0.06131  0.50019  1.0000
  H   H77       1.0  0.54230  0.02196  0.53564  1.0000
  H   H78       1.0  0.50778  0.03002  0.54787  1.0000
  N   N5        1.0  0.45329  0.92885  0.33408  1.0000
  H   H79       1.0  0.43397  0.92388  0.37851  1.0000
  C   C88       1.0  0.03645  0.51270  0.33331  1.0000
  C   C89       1.0  0.98338  0.49772  0.41630  1.0000
  H   H80       1.0  0.03258  0.51646  0.47255  1.0000
  C   C90       1.0  0.96720  0.49527  0.50452  1.0000
  H   H81       1.0  0.93973  0.48568  0.50017  1.0000
  H   H82       1.0  0.97907  0.52056  0.53562  1.0000
  H   H83       1.0  0.97101  0.47797  0.54786  1.0000
  N   N6        1.0  0.07217  0.52464  0.33406  1.0000
  H   H84       1.0  0.07714  0.51029  0.37849  1.0000
