data_image0
_chemical_formula_structural       C4HC2O2CNC2N2HCNC2N2HC6HC5HCH3C2O2NC3N2HNC3N2HC4HC2O2CNC2N2HCNC2N2HC6HC5HCH3C2O2NC3N2HNC3N2HC4HC2O2CNC2N2HCNC2N2HC6HC5HCH3C2O2NC3N2HNC3N2HC4HC2O2CNC2N2HCNC2N2HC6HC5HCH3C2O2NC3N2HNC3N2H
_chemical_formula_sum              "C128 H40 O16 N48"
_cell_length_a       30.2072
_cell_length_b       30.2072
_cell_length_c       15.0311
_cell_angle_alpha    90
_cell_angle_beta     90
_cell_angle_gamma    90

_space_group_name_H-M_alt    "P 1"
_space_group_IT_number       1

loop_
  _space_group_symop_operation_xyz
  'x, y, z'

loop_
  _atom_site_type_symbol
  _atom_site_label
  _atom_site_symmetry_multiplicity
  _atom_site_fract_x
  _atom_site_fract_y
  _atom_site_fract_z
  _atom_site_occupancy
  C   C1        1.0  0.46750  0.08815  0.41236  1.0000
  C   C2        1.0  0.49730  0.05821  0.37001  1.0000
  C   C3        1.0  0.00092  0.43943  0.29004  1.0000
  C   C4        1.0  0.03067  0.40949  0.24754  1.0000
  H   H1        1.0  0.44481  0.39664  0.29295  1.0000
  C   C5        1.0  0.47446  0.13466  0.41684  1.0000
  C   C6        1.0  0.02378  0.36298  0.24320  1.0000
  O   O1        1.0  0.45519  0.15724  0.48468  1.0000
  O   O2        1.0  0.04312  0.34036  0.17546  1.0000
  C   C7        1.0  0.99400  0.20235  0.33537  1.0000
  N   N1        1.0  0.00884  0.26822  0.25281  1.0000
  C   C8        1.0  0.00454  0.22358  0.25378  1.0000
  C   C9        1.0  0.00955  0.20346  0.17794  1.0000
  N   N2        1.0  0.01377  0.18574  0.11088  1.0000
  N   N3        1.0  0.98891  0.15760  0.34389  1.0000
  H   H2        1.0  0.99377  0.14028  0.29014  1.0000
  C   C10       1.0  0.29555  0.00401  0.33534  1.0000
  N   N4        1.0  0.22968  0.98915  0.25277  1.0000
  C   C11       1.0  0.27431  0.99348  0.25373  1.0000
  C   C12       1.0  0.29443  0.98852  0.17788  1.0000
  N   N5        1.0  0.31215  0.98433  0.11082  1.0000
  N   N6        1.0  0.34030  0.00908  0.34387  1.0000
  H   H3        1.0  0.35762  0.00419  0.29012  1.0000
  C   C13       1.0  0.48394  0.01400  0.35045  1.0000
  C   C14       1.0  0.43972  0.00065  0.37001  1.0000
  C   C15       1.0  0.40978  0.03042  0.41246  1.0000
  C   C16       1.0  0.42591  0.07203  0.44073  1.0000
  C   C17       1.0  0.42750  0.45652  0.35064  1.0000
  C   C18       1.0  0.04143  0.07041  0.35066  1.0000
  H   H4        1.0  0.40371  0.09429  0.46641  1.0000
  C   C19       1.0  0.01429  0.48363  0.30963  1.0000
  C   C20       1.0  0.07228  0.42561  0.21926  1.0000
  C   C21       1.0  0.08844  0.46719  0.24767  1.0000
  C   C22       1.0  0.05851  0.49698  0.29008  1.0000
  C   C23       1.0  0.45679  0.42722  0.30942  1.0000
  H   H5        1.0  0.09453  0.40342  0.19351  1.0000
  C   C24       1.0  0.07073  0.04110  0.30945  1.0000
  H   H6        1.0  0.39691  0.44456  0.36705  1.0000
  H   H7        1.0  0.10132  0.05307  0.29304  1.0000
  H   H8        1.0  0.05341  0.10099  0.36707  1.0000
  C   C25       1.0  0.36326  0.02354  0.41678  1.0000
  C   C26       1.0  0.13495  0.47408  0.24313  1.0000
  O   O3        1.0  0.34064  0.04289  0.48448  1.0000
  O   O4        1.0  0.15760  0.45486  0.17534  1.0000
  N   N7        1.0  0.48942  0.22938  0.40718  1.0000
  C   C27       1.0  0.49372  0.27402  0.40621  1.0000
  C   C28       1.0  0.50426  0.29525  0.32461  1.0000
  C   C29       1.0  0.48872  0.29414  0.48206  1.0000
  N   N8        1.0  0.48450  0.31186  0.54911  1.0000
  N   N9        1.0  0.50932  0.34001  0.31610  1.0000
  H   H9        1.0  0.50443  0.35732  0.36983  1.0000
  N   N10       1.0  0.26851  0.50855  0.40716  1.0000
  C   C30       1.0  0.22388  0.50423  0.40618  1.0000
  C   C31       1.0  0.20265  0.49368  0.32459  1.0000
  C   C32       1.0  0.20376  0.50914  0.48205  1.0000
  N   N11       1.0  0.18605  0.51329  0.54913  1.0000
  N   N12       1.0  0.15789  0.48856  0.31608  1.0000
  H   H10       1.0  0.14058  0.49340  0.36983  1.0000
  C   C33       1.0  0.46750  0.58815  0.41236  1.0000
  C   C34       1.0  0.49730  0.55821  0.37001  1.0000
  C   C35       1.0  0.00092  0.93943  0.29004  1.0000
  C   C36       1.0  0.03067  0.90949  0.24754  1.0000
  H   H11       1.0  0.44481  0.89664  0.29295  1.0000
  C   C37       1.0  0.47446  0.63466  0.41684  1.0000
  C   C38       1.0  0.02378  0.86298  0.24320  1.0000
  O   O5        1.0  0.45519  0.65724  0.48468  1.0000
  O   O6        1.0  0.04312  0.84036  0.17546  1.0000
  C   C39       1.0  0.99400  0.70235  0.33537  1.0000
  N   N13       1.0  0.00884  0.76821  0.25281  1.0000
  C   C40       1.0  0.00454  0.72358  0.25378  1.0000
  C   C41       1.0  0.00955  0.70346  0.17794  1.0000
  N   N14       1.0  0.01377  0.68574  0.11088  1.0000
  N   N15       1.0  0.98891  0.65759  0.34389  1.0000
  H   H12       1.0  0.99377  0.64028  0.29014  1.0000
  C   C42       1.0  0.29555  0.50401  0.33534  1.0000
  N   N16       1.0  0.22968  0.48915  0.25277  1.0000
  C   C43       1.0  0.27431  0.49348  0.25373  1.0000
  C   C44       1.0  0.29443  0.48852  0.17788  1.0000
  N   N17       1.0  0.31215  0.48433  0.11082  1.0000
  N   N18       1.0  0.34030  0.50908  0.34387  1.0000
  H   H13       1.0  0.35762  0.50419  0.29012  1.0000
  C   C45       1.0  0.48394  0.51400  0.35045  1.0000
  C   C46       1.0  0.43972  0.50065  0.37001  1.0000
  C   C47       1.0  0.40978  0.53042  0.41246  1.0000
  C   C48       1.0  0.42591  0.57203  0.44073  1.0000
  C   C49       1.0  0.42750  0.95652  0.35064  1.0000
  C   C50       1.0  0.04143  0.57041  0.35066  1.0000
  H   H14       1.0  0.40371  0.59429  0.46641  1.0000
  C   C51       1.0  0.01429  0.98363  0.30963  1.0000
  C   C52       1.0  0.07228  0.92561  0.21926  1.0000
  C   C53       1.0  0.08844  0.96719  0.24767  1.0000
  C   C54       1.0  0.05851  0.99697  0.29008  1.0000
  C   C55       1.0  0.45679  0.92722  0.30942  1.0000
  H   H15       1.0  0.09453  0.90341  0.19351  1.0000
  C   C56       1.0  0.07073  0.54110  0.30945  1.0000
  H   H16       1.0  0.39691  0.94456  0.36705  1.0000
  H   H17       1.0  0.10132  0.55307  0.29304  1.0000
  H   H18       1.0  0.05341  0.60099  0.36707  1.0000
  C   C57       1.0  0.36326  0.52354  0.41678  1.0000
  C   C58       1.0  0.13495  0.97407  0.24313  1.0000
  O   O7        1.0  0.34064  0.54289  0.48448  1.0000
  O   O8        1.0  0.15760  0.95485  0.17534  1.0000
  N   N19       1.0  0.48942  0.72938  0.40718  1.0000
  C   C59       1.0  0.49372  0.77402  0.40621  1.0000
  C   C60       1.0  0.50426  0.79525  0.32461  1.0000
  C   C61       1.0  0.48872  0.79414  0.48206  1.0000
  N   N20       1.0  0.48450  0.81186  0.54911  1.0000
  N   N21       1.0  0.50932  0.84001  0.31610  1.0000
  H   H19       1.0  0.50443  0.85732  0.36983  1.0000
  N   N22       1.0  0.26851  0.00855  0.40716  1.0000
  C   C62       1.0  0.22388  0.00423  0.40618  1.0000
  C   C63       1.0  0.20265  0.99369  0.32459  1.0000
  C   C64       1.0  0.20376  0.00914  0.48205  1.0000
  N   N23       1.0  0.18605  0.01329  0.54913  1.0000
  N   N24       1.0  0.15789  0.98856  0.31608  1.0000
  H   H20       1.0  0.14058  0.99340  0.36983  1.0000
  C   C65       1.0  0.96750  0.08815  0.41236  1.0000
  C   C66       1.0  0.99729  0.05821  0.37001  1.0000
  C   C67       1.0  0.50092  0.43943  0.29004  1.0000
  C   C68       1.0  0.53067  0.40949  0.24754  1.0000
  H   H21       1.0  0.94481  0.39664  0.29295  1.0000
  C   C69       1.0  0.97446  0.13466  0.41684  1.0000
  C   C70       1.0  0.52378  0.36298  0.24320  1.0000
  O   O9        1.0  0.95519  0.15724  0.48468  1.0000
  O   O10       1.0  0.54311  0.34036  0.17546  1.0000
  C   C71       1.0  0.49400  0.20235  0.33537  1.0000
  N   N25       1.0  0.50884  0.26822  0.25281  1.0000
  C   C72       1.0  0.50454  0.22358  0.25378  1.0000
  C   C73       1.0  0.50955  0.20346  0.17794  1.0000
  N   N26       1.0  0.51377  0.18574  0.11088  1.0000
  N   N27       1.0  0.48891  0.15760  0.34389  1.0000
  H   H22       1.0  0.49376  0.14028  0.29014  1.0000
  C   C74       1.0  0.79554  0.00401  0.33534  1.0000
  N   N28       1.0  0.72969  0.98915  0.25277  1.0000
  C   C75       1.0  0.77431  0.99348  0.25373  1.0000
  C   C76       1.0  0.79443  0.98852  0.17788  1.0000
  N   N29       1.0  0.81215  0.98433  0.11082  1.0000
  N   N30       1.0  0.84030  0.00908  0.34387  1.0000
  H   H23       1.0  0.85762  0.00419  0.29012  1.0000
  C   C77       1.0  0.98393  0.01400  0.35045  1.0000
  C   C78       1.0  0.93971  0.00065  0.37001  1.0000
  C   C79       1.0  0.90978  0.03042  0.41246  1.0000
  C   C80       1.0  0.92590  0.07203  0.44073  1.0000
  C   C81       1.0  0.92750  0.45652  0.35064  1.0000
  C   C82       1.0  0.54143  0.07041  0.35066  1.0000
  H   H24       1.0  0.90371  0.09429  0.46641  1.0000
  C   C83       1.0  0.51429  0.48363  0.30963  1.0000
  C   C84       1.0  0.57228  0.42561  0.21926  1.0000
  C   C85       1.0  0.58844  0.46719  0.24767  1.0000
  C   C86       1.0  0.55851  0.49698  0.29008  1.0000
  C   C87       1.0  0.95679  0.42722  0.30942  1.0000
  H   H25       1.0  0.59452  0.40342  0.19351  1.0000
  C   C88       1.0  0.57073  0.04110  0.30945  1.0000
  H   H26       1.0  0.89691  0.44456  0.36705  1.0000
  H   H27       1.0  0.60132  0.05307  0.29304  1.0000
  H   H28       1.0  0.55341  0.10099  0.36707  1.0000
  C   C89       1.0  0.86326  0.02354  0.41678  1.0000
  C   C90       1.0  0.63495  0.47408  0.24313  1.0000
  O   O11       1.0  0.84064  0.04289  0.48448  1.0000
  O   O12       1.0  0.65760  0.45486  0.17534  1.0000
  N   N31       1.0  0.98942  0.22938  0.40718  1.0000
  C   C91       1.0  0.99372  0.27402  0.40621  1.0000
  C   C92       1.0  0.00426  0.29525  0.32461  1.0000
  C   C93       1.0  0.98872  0.29414  0.48206  1.0000
  N   N32       1.0  0.98450  0.31186  0.54911  1.0000
  N   N33       1.0  0.00932  0.34001  0.31610  1.0000
  H   H29       1.0  0.00443  0.35732  0.36983  1.0000
  N   N34       1.0  0.76851  0.50855  0.40716  1.0000
  C   C94       1.0  0.72388  0.50423  0.40618  1.0000
  C   C95       1.0  0.70264  0.49368  0.32459  1.0000
  C   C96       1.0  0.70376  0.50914  0.48205  1.0000
  N   N35       1.0  0.68604  0.51329  0.54913  1.0000
  N   N36       1.0  0.65789  0.48856  0.31608  1.0000
  H   H30       1.0  0.64058  0.49340  0.36983  1.0000
  C   C97       1.0  0.96750  0.58815  0.41236  1.0000
  C   C98       1.0  0.99729  0.55821  0.37001  1.0000
  C   C99       1.0  0.50092  0.93943  0.29004  1.0000
  C   C100      1.0  0.53067  0.90949  0.24754  1.0000
  H   H31       1.0  0.94481  0.89664  0.29295  1.0000
  C   C101      1.0  0.97446  0.63466  0.41684  1.0000
  C   C102      1.0  0.52378  0.86298  0.24320  1.0000
  O   O13       1.0  0.95519  0.65724  0.48468  1.0000
  O   O14       1.0  0.54311  0.84036  0.17546  1.0000
  C   C103      1.0  0.49400  0.70235  0.33537  1.0000
  N   N37       1.0  0.50884  0.76821  0.25281  1.0000
  C   C104      1.0  0.50454  0.72358  0.25378  1.0000
  C   C105      1.0  0.50955  0.70346  0.17794  1.0000
  N   N38       1.0  0.51377  0.68574  0.11088  1.0000
  N   N39       1.0  0.48891  0.65759  0.34389  1.0000
  H   H32       1.0  0.49376  0.64028  0.29014  1.0000
  C   C106      1.0  0.79554  0.50401  0.33534  1.0000
  N   N40       1.0  0.72969  0.48915  0.25277  1.0000
  C   C107      1.0  0.77431  0.49348  0.25373  1.0000
  C   C108      1.0  0.79443  0.48852  0.17788  1.0000
  N   N41       1.0  0.81215  0.48433  0.11082  1.0000
  N   N42       1.0  0.84030  0.50908  0.34387  1.0000
  H   H33       1.0  0.85762  0.50419  0.29012  1.0000
  C   C109      1.0  0.98393  0.51400  0.35045  1.0000
  C   C110      1.0  0.93971  0.50065  0.37001  1.0000
  C   C111      1.0  0.90978  0.53042  0.41246  1.0000
  C   C112      1.0  0.92590  0.57203  0.44073  1.0000
  C   C113      1.0  0.92750  0.95652  0.35064  1.0000
  C   C114      1.0  0.54143  0.57041  0.35066  1.0000
  H   H34       1.0  0.90371  0.59429  0.46641  1.0000
  C   C115      1.0  0.51429  0.98363  0.30963  1.0000
  C   C116      1.0  0.57228  0.92561  0.21926  1.0000
  C   C117      1.0  0.58844  0.96719  0.24767  1.0000
  C   C118      1.0  0.55851  0.99697  0.29008  1.0000
  C   C119      1.0  0.95679  0.92722  0.30942  1.0000
  H   H35       1.0  0.59452  0.90341  0.19351  1.0000
  C   C120      1.0  0.57073  0.54110  0.30945  1.0000
  H   H36       1.0  0.89691  0.94456  0.36705  1.0000
  H   H37       1.0  0.60132  0.55307  0.29304  1.0000
  H   H38       1.0  0.55341  0.60099  0.36707  1.0000
  C   C121      1.0  0.86326  0.52354  0.41678  1.0000
  C   C122      1.0  0.63495  0.97407  0.24313  1.0000
  O   O15       1.0  0.84064  0.54289  0.48448  1.0000
  O   O16       1.0  0.65760  0.95485  0.17534  1.0000
  N   N43       1.0  0.98942  0.72938  0.40718  1.0000
  C   C123      1.0  0.99372  0.77402  0.40621  1.0000
  C   C124      1.0  0.00426  0.79525  0.32461  1.0000
  C   C125      1.0  0.98872  0.79414  0.48206  1.0000
  N   N44       1.0  0.98450  0.81186  0.54911  1.0000
  N   N45       1.0  0.00932  0.84001  0.31610  1.0000
  H   H39       1.0  0.00443  0.85732  0.36983  1.0000
  N   N46       1.0  0.76851  0.00855  0.40716  1.0000
  C   C126      1.0  0.72388  0.00423  0.40618  1.0000
  C   C127      1.0  0.70264  0.99369  0.32459  1.0000
  C   C128      1.0  0.70376  0.00914  0.48205  1.0000
  N   N47       1.0  0.68604  0.01329  0.54913  1.0000
  N   N48       1.0  0.65789  0.98856  0.31608  1.0000
  H   H40       1.0  0.64058  0.99340  0.36983  1.0000
