data_image0
_chemical_formula_structural       CHC3H2C3H3C5HCH3C3HCH3C3H3C19H13C24H15C3HCH3C3HCH3CH
_chemical_formula_sum              "C72 H54"
_cell_length_a       29.8485
_cell_length_b       29.8484
_cell_length_c       14.7988
_cell_angle_alpha    90
_cell_angle_beta     90
_cell_angle_gamma    120

_space_group_name_H-M_alt    "P 1"
_space_group_IT_number       1

loop_
  _space_group_symop_operation_xyz
  'x, y, z'

loop_
  _atom_site_type_symbol
  _atom_site_label
  _atom_site_symmetry_multiplicity
  _atom_site_fract_x
  _atom_site_fract_y
  _atom_site_fract_z
  _atom_site_occupancy
  C   C1        1.0  0.03963  0.52397  0.26909  1.0000
  H   H1        1.0  0.06119  0.53763  0.21117  1.0000
  C   C2        1.0  0.14911  0.54318  0.30142  1.0000
  C   C3        1.0  0.12091  0.56081  0.35246  1.0000
  C   C4        1.0  0.14910  0.60798  0.39988  1.0000
  H   H2        1.0  0.13011  0.50952  0.26521  1.0000
  H   H3        1.0  0.13007  0.62251  0.43635  1.0000
  C   C5        1.0  0.06557  0.53282  0.35292  1.0000
  C   C6        1.0  0.03533  0.51485  0.43319  1.0000
  C   C7        1.0  0.05718  0.51889  0.52536  1.0000
  H   H4        1.0  0.09858  0.53293  0.52543  1.0000
  H   H5        1.0  0.03856  0.48089  0.55758  1.0000
  H   H6        1.0  0.05002  0.54505  0.56645  1.0000
  C   C8        1.0  0.20356  0.57113  0.29967  1.0000
  C   C9        1.0  0.20358  0.63539  0.39926  1.0000
  C   C10       1.0  0.53619  0.47743  0.34252  1.0000
  C   C11       1.0  0.51804  0.48951  0.26227  1.0000
  C   C12       1.0  0.49282  0.51885  0.26915  1.0000
  H   H7        1.0  0.47901  0.52661  0.21126  1.0000
  C   C13       1.0  0.52178  0.47141  0.17020  1.0000
  H   H8        1.0  0.53586  0.44407  0.17020  1.0000
  H   H9        1.0  0.54779  0.50460  0.12871  1.0000
  H   H10       1.0  0.48367  0.45189  0.13836  1.0000
  C   C14       1.0  0.53953  0.06217  0.34246  1.0000
  C   C15       1.0  0.52748  0.03194  0.26221  1.0000
  C   C16       1.0  0.49815  0.97738  0.26906  1.0000
  H   H11       1.0  0.49041  0.95583  0.21116  1.0000
  C   C17       1.0  0.54559  0.05381  0.17014  1.0000
  H   H12       1.0  0.57291  0.09522  0.17016  1.0000
  H   H13       1.0  0.51240  0.04661  0.12864  1.0000
  H   H14       1.0  0.56513  0.03523  0.13831  1.0000
  C   C18       1.0  0.95483  0.48077  0.34246  1.0000
  C   C19       1.0  0.98507  0.49873  0.26219  1.0000
  C   C20       1.0  0.96322  0.49475  0.17004  1.0000
  H   H15       1.0  0.92182  0.48071  0.16997  1.0000
  H   H16       1.0  0.97039  0.46862  0.12888  1.0000
  H   H17       1.0  0.98184  0.53277  0.13788  1.0000
  C   C21       1.0  0.28799  0.64565  0.34872  1.0000
  C   C22       1.0  0.31657  0.61942  0.34879  1.0000
  C   C23       1.0  0.37137  0.64574  0.34877  1.0000
  C   C24       1.0  0.39761  0.70055  0.34872  1.0000
  C   C25       1.0  0.37129  0.72903  0.34865  1.0000
  C   C26       1.0  0.31647  0.70046  0.34865  1.0000
  C   C27       1.0  0.39934  0.61798  0.34927  1.0000
  C   C28       1.0  0.38172  0.57170  0.39955  1.0000
  C   C29       1.0  0.40913  0.54462  0.40018  1.0000
  C   C30       1.0  0.45621  0.56351  0.35249  1.0000
  C   C31       1.0  0.47375  0.60925  0.30123  1.0000
  C   C32       1.0  0.44581  0.63576  0.29950  1.0000
  C   C33       1.0  0.23226  0.61769  0.34921  1.0000
  C   C34       1.0  0.39905  0.78476  0.34910  1.0000
  C   C35       1.0  0.38128  0.81344  0.29932  1.0000
  C   C36       1.0  0.40777  0.86790  0.30107  1.0000
  C   C37       1.0  0.45349  0.89609  0.35236  1.0000
  C   C38       1.0  0.47240  0.86791  0.40001  1.0000
  C   C39       1.0  0.44534  0.81343  0.39937  1.0000
  H   H18       1.0  0.22205  0.55718  0.26033  1.0000
  H   H19       1.0  0.22210  0.66829  0.43745  1.0000
  H   H20       1.0  0.34889  0.79495  0.25985  1.0000
  H   H21       1.0  0.39317  0.88690  0.26469  1.0000
  H   H22       1.0  0.45964  0.79491  0.43777  1.0000
  H   H23       1.0  0.50589  0.88695  0.43670  1.0000
  H   H24       1.0  0.45968  0.66813  0.26000  1.0000
  H   H25       1.0  0.50734  0.62384  0.26482  1.0000
  H   H26       1.0  0.39466  0.51113  0.43683  1.0000
  H   H27       1.0  0.34889  0.55739  0.43791  1.0000
  H   H28       1.0  0.29684  0.57987  0.34900  1.0000
  H   H29       1.0  0.29666  0.72020  0.34873  1.0000
  H   H30       1.0  0.43717  0.72037  0.34885  1.0000
  C   C40       1.0  0.73241  0.36795  0.34666  1.0000
  C   C41       1.0  0.70383  0.39419  0.34660  1.0000
  C   C42       1.0  0.64902  0.36786  0.34664  1.0000
  C   C43       1.0  0.62279  0.31305  0.34666  1.0000
  C   C44       1.0  0.64912  0.28457  0.34670  1.0000
  C   C45       1.0  0.70393  0.31314  0.34671  1.0000
  C   C46       1.0  0.62106  0.39562  0.34616  1.0000
  C   C47       1.0  0.63867  0.44190  0.29587  1.0000
  C   C48       1.0  0.61126  0.46897  0.29527  1.0000
  C   C49       1.0  0.56419  0.45008  0.34296  1.0000
  C   C50       1.0  0.54665  0.40435  0.39422  1.0000
  C   C51       1.0  0.57459  0.37783  0.39594  1.0000
  C   C52       1.0  0.78814  0.39592  0.34617  1.0000
  C   C53       1.0  0.81684  0.44247  0.39572  1.0000
  C   C54       1.0  0.87129  0.47041  0.39397  1.0000
  C   C55       1.0  0.89948  0.45279  0.34291  1.0000
  C   C56       1.0  0.87130  0.40563  0.29548  1.0000
  C   C57       1.0  0.81681  0.37822  0.29609  1.0000
  C   C58       1.0  0.62135  0.22884  0.34621  1.0000
  C   C59       1.0  0.63913  0.20015  0.39598  1.0000
  C   C60       1.0  0.61262  0.14570  0.39422  1.0000
  C   C61       1.0  0.56690  0.11751  0.34293  1.0000
  C   C62       1.0  0.54800  0.14570  0.29528  1.0000
  C   C63       1.0  0.57507  0.20018  0.29592  1.0000
  H   H31       1.0  0.89030  0.50407  0.43021  1.0000
  H   H32       1.0  0.79835  0.45641  0.43508  1.0000
  H   H33       1.0  0.89032  0.39110  0.25898  1.0000
  H   H34       1.0  0.79829  0.34533  0.25788  1.0000
  H   H35       1.0  0.67150  0.21864  0.43548  1.0000
  H   H36       1.0  0.62721  0.12669  0.43062  1.0000
  H   H37       1.0  0.56078  0.21871  0.25754  1.0000
  H   H38       1.0  0.51452  0.12667  0.25857  1.0000
  H   H39       1.0  0.56072  0.34546  0.43543  1.0000
  H   H40       1.0  0.51306  0.38975  0.43063  1.0000
  H   H41       1.0  0.62571  0.50246  0.25860  1.0000
  H   H42       1.0  0.67149  0.45620  0.25750  1.0000
  H   H43       1.0  0.72356  0.43374  0.34643  1.0000
  H   H44       1.0  0.72374  0.29340  0.34661  1.0000
  H   H45       1.0  0.58323  0.29323  0.34652  1.0000
  C   C64       1.0  0.48420  0.53616  0.35294  1.0000
  C   C65       1.0  0.50237  0.52409  0.43318  1.0000
  C   C66       1.0  0.52758  0.49475  0.42630  1.0000
  H   H46       1.0  0.54136  0.48697  0.48420  1.0000
  C   C67       1.0  0.49858  0.54216  0.52526  1.0000
  H   H47       1.0  0.48450  0.56949  0.52527  1.0000
  H   H48       1.0  0.53667  0.56166  0.55716  1.0000
  H   H49       1.0  0.47255  0.50895  0.56670  1.0000
  C   C68       1.0  0.48084  0.95144  0.35283  1.0000
  C   C69       1.0  0.49289  0.98166  0.43308  1.0000
  C   C70       1.0  0.52222  0.03622  0.42623  1.0000
  H   H50       1.0  0.52999  0.05777  0.48414  1.0000
  C   C71       1.0  0.47482  0.95979  0.52516  1.0000
  H   H51       1.0  0.44750  0.91838  0.52515  1.0000
  H   H52       1.0  0.45530  0.97837  0.55705  1.0000
  H   H53       1.0  0.50803  0.96699  0.56660  1.0000
  C   C72       1.0  0.98077  0.48962  0.42629  1.0000
  H   H54       1.0  0.95920  0.47599  0.48422  1.0000
