data_image0
_chemical_formula_structural       C17H12C17H12C2H3NC3H3NC3H3NC14H9C13H9C3H3NC3H3NC3H3N
_chemical_formula_sum              "C78 H60 N6"
_cell_length_a       37.2329
_cell_length_b       37.2077
_cell_length_c       14.8352
_cell_angle_alpha    90
_cell_angle_beta     90
_cell_angle_gamma    120.036

_space_group_name_H-M_alt    "P 1"
_space_group_IT_number       1

loop_
  _space_group_symop_operation_xyz
  'x, y, z'

loop_
  _atom_site_type_symbol
  _atom_site_label
  _atom_site_symmetry_multiplicity
  _atom_site_fract_x
  _atom_site_fract_y
  _atom_site_fract_z
  _atom_site_occupancy
  C   C1        1.0  0.48012  0.89306  0.35838  1.0000
  C   C2        1.0  0.45539  0.84949  0.36103  1.0000
  C   C3        1.0  0.39211  0.75938  0.30798  1.0000
  C   C4        1.0  0.36685  0.71635  0.31400  1.0000
  C   C5        1.0  0.32302  0.69689  0.31376  1.0000
  C   C6        1.0  0.29754  0.65315  0.31406  1.0000
  C   C7        1.0  0.31698  0.62875  0.31298  1.0000
  C   C8        1.0  0.36070  0.64704  0.31325  1.0000
  C   C9        1.0  0.38510  0.69091  0.31285  1.0000
  C   C10       1.0  0.37840  0.62174  0.30696  1.0000
  C   C11       1.0  0.42928  0.60213  0.34602  1.0000
  C   C12       1.0  0.40557  0.55888  0.36171  1.0000
  C   C13       1.0  0.42424  0.53402  0.35933  1.0000
  C   C14       1.0  0.25451  0.63546  0.30836  1.0000
  C   C15       1.0  0.18401  0.58442  0.34717  1.0000
  C   C16       1.0  0.15864  0.54183  0.32644  1.0000
  C   C17       1.0  0.11514  0.52340  0.32369  1.0000
  H   H1        1.0  0.51149  0.90634  0.36739  1.0000
  H   H2        1.0  0.46935  0.83227  0.37362  1.0000
  H   H3        1.0  0.41679  0.70462  0.30964  1.0000
  H   H4        1.0  0.30936  0.71493  0.31128  1.0000
  H   H5        1.0  0.29898  0.59705  0.30990  1.0000
  H   H6        1.0  0.40614  0.50278  0.37029  1.0000
  H   H7        1.0  0.37459  0.54517  0.37636  1.0000
  H   H8        1.0  0.09766  0.49236  0.30949  1.0000
  H   H9        1.0  0.17164  0.52373  0.31350  1.0000
  H   H10       1.0  0.36466  0.59733  0.26584  1.0000
  H   H11       1.0  0.41610  0.77014  0.26570  1.0000
  H   H12       1.0  0.24381  0.64949  0.26825  1.0000
  C   C18       1.0  0.53770  0.11728  0.31214  1.0000
  C   C19       1.0  0.56052  0.16087  0.31944  1.0000
  C   C20       1.0  0.62549  0.25214  0.30016  1.0000
  C   C21       1.0  0.65007  0.29494  0.30911  1.0000
  C   C22       1.0  0.69387  0.31434  0.30876  1.0000
  C   C23       1.0  0.71905  0.35808  0.30922  1.0000
  C   C24       1.0  0.69967  0.38250  0.30841  1.0000
  C   C25       1.0  0.65597  0.36393  0.30881  1.0000
  C   C26       1.0  0.63153  0.32010  0.30831  1.0000
  C   C27       1.0  0.63782  0.38855  0.29968  1.0000
  C   C28       1.0  0.59016  0.41146  0.34779  1.0000
  C   C29       1.0  0.61156  0.45351  0.31981  1.0000
  C   C30       1.0  0.59091  0.47641  0.31243  1.0000
  C   C31       1.0  0.76184  0.37623  0.30043  1.0000
  C   C32       1.0  0.83242  0.42423  0.34813  1.0000
  C   C33       1.0  0.85705  0.46703  0.36826  1.0000
  C   C34       1.0  0.90059  0.48748  0.36165  1.0000
  H   H13       1.0  0.50734  0.10338  0.29209  1.0000
  H   H14       1.0  0.54601  0.17730  0.30417  1.0000
  H   H15       1.0  0.59984  0.30633  0.30474  1.0000
  H   H16       1.0  0.70759  0.29636  0.30554  1.0000
  H   H17       1.0  0.71764  0.41422  0.30486  1.0000
  H   H18       1.0  0.60759  0.50697  0.29372  1.0000
  H   H19       1.0  0.64265  0.46817  0.30595  1.0000
  H   H20       1.0  0.91734  0.51847  0.37676  1.0000
  H   H21       1.0  0.84346  0.48382  0.38816  1.0000
  H   H22       1.0  0.64628  0.40730  0.24639  1.0000
  H   H23       1.0  0.60711  0.24178  0.24631  1.0000
  H   H24       1.0  0.77218  0.36737  0.24792  1.0000
  C   C35       1.0  0.54266  0.50506  0.16352  1.0000
  C   C36       1.0  0.52604  0.50427  0.25454  1.0000
  H   H25       1.0  0.51807  0.49617  0.11362  1.0000
  H   H26       1.0  0.55458  0.48377  0.15676  1.0000
  H   H27       1.0  0.56763  0.53644  0.14844  1.0000
  N   N1        1.0  0.50577  0.52593  0.26503  1.0000
  C   C37       1.0  0.52748  0.48136  0.32967  1.0000
  C   C38       1.0  0.51026  0.04031  0.16413  1.0000
  C   C39       1.0  0.51023  0.02447  0.25562  1.0000
  H   H28       1.0  0.51945  0.02450  0.11516  1.0000
  H   H29       1.0  0.53170  0.07352  0.15752  1.0000
  H   H30       1.0  0.47908  0.03402  0.14757  1.0000
  N   N2        1.0  0.48839  0.98250  0.26611  1.0000
  C   C40       1.0  0.53255  0.04885  0.33128  1.0000
  C   C41       1.0  0.97354  0.47038  0.16557  1.0000
  C   C42       1.0  0.98935  0.48761  0.25623  1.0000
  H   H31       1.0  0.98913  0.49470  0.11504  1.0000
  H   H32       1.0  0.94029  0.45820  0.15871  1.0000
  H   H33       1.0  0.98007  0.44542  0.15152  1.0000
  N   N3        1.0  0.03128  0.50792  0.26694  1.0000
  C   C43       1.0  0.96498  0.48655  0.33089  1.0000
  C   C44       1.0  0.46206  0.91814  0.34376  1.0000
  C   C45       1.0  0.41194  0.82983  0.34857  1.0000
  C   C46       1.0  0.39399  0.85497  0.33294  1.0000
  C   C47       1.0  0.41879  0.89853  0.32948  1.0000
  C   C48       1.0  0.38668  0.78701  0.35594  1.0000
  C   C49       1.0  0.41198  0.62758  0.35336  1.0000
  C   C50       1.0  0.47209  0.61973  0.32739  1.0000
  C   C51       1.0  0.46715  0.55173  0.34204  1.0000
  C   C52       1.0  0.49065  0.59479  0.32425  1.0000
  C   C53       1.0  0.22676  0.60157  0.35402  1.0000
  C   C54       1.0  0.16465  0.60807  0.36520  1.0000
  C   C55       1.0  0.09572  0.54680  0.34383  1.0000
  C   C56       1.0  0.12113  0.58954  0.36305  1.0000
  H   H34       1.0  0.40479  0.91587  0.31902  1.0000
  H   H35       1.0  0.36259  0.84176  0.32429  1.0000
  H   H36       1.0  0.18205  0.63892  0.38124  1.0000
  H   H37       1.0  0.49023  0.65100  0.31631  1.0000
  H   H38       1.0  0.52183  0.60860  0.31173  1.0000
  H   H39       1.0  0.10817  0.60767  0.37534  1.0000
  H   H40       1.0  0.42601  0.65181  0.39473  1.0000
  H   H41       1.0  0.36281  0.77666  0.39831  1.0000
  H   H42       1.0  0.23693  0.58721  0.39443  1.0000
  C   C57       1.0  0.55585  0.09293  0.33438  1.0000
  C   C58       1.0  0.60228  0.18156  0.34926  1.0000
  C   C59       1.0  0.62001  0.15701  0.37343  1.0000
  C   C60       1.0  0.59712  0.11343  0.36662  1.0000
  C   C61       1.0  0.62558  0.22464  0.35897  1.0000
  C   C62       1.0  0.60981  0.38810  0.35771  1.0000
  C   C63       1.0  0.54763  0.39348  0.37006  1.0000
  C   C64       1.0  0.54819  0.45804  0.33277  1.0000
  C   C65       1.0  0.52705  0.41644  0.36316  1.0000
  C   C66       1.0  0.78939  0.40471  0.35780  1.0000
  C   C67       1.0  0.85297  0.40245  0.32260  1.0000
  C   C68       1.0  0.92096  0.46593  0.33366  1.0000
  C   C69       1.0  0.89653  0.42298  0.31546  1.0000
  H   H43       1.0  0.61108  0.09676  0.38471  1.0000
  H   H44       1.0  0.64995  0.17068  0.39647  1.0000
  H   H45       1.0  0.83645  0.37119  0.31031  1.0000
  H   H46       1.0  0.53111  0.36332  0.39174  1.0000
  H   H47       1.0  0.49625  0.40231  0.37985  1.0000
  H   H48       1.0  0.91035  0.40607  0.29844  1.0000
  H   H49       1.0  0.60133  0.36874  0.41002  1.0000
  H   H50       1.0  0.64460  0.23562  0.41180  1.0000
  H   H51       1.0  0.77852  0.41359  0.40940  1.0000
  C   C70       1.0  0.48648  0.52715  0.34184  1.0000
  C   C71       1.0  0.48794  0.50432  0.41694  1.0000
  C   C72       1.0  0.47092  0.50437  0.50702  1.0000
  H   H52       1.0  0.48371  0.53621  0.53095  1.0000
  H   H53       1.0  0.47873  0.48745  0.55605  1.0000
  H   H54       1.0  0.43722  0.48955  0.50388  1.0000
  N   N4        1.0  0.50847  0.48296  0.40661  1.0000
  C   C73       1.0  0.48657  0.96205  0.34342  1.0000
  C   C74       1.0  0.50892  0.98631  0.41892  1.0000
  C   C75       1.0  0.50836  0.96905  0.50908  1.0000
  H   H55       1.0  0.47643  0.95035  0.53262  1.0000
  H   H56       1.0  0.52545  0.99371  0.55821  1.0000
  H   H57       1.0  0.52269  0.94971  0.50614  1.0000
  N   N5        1.0  0.53041  0.02824  0.40861  1.0000
  C   C76       1.0  0.05178  0.52757  0.34352  1.0000
  C   C77       1.0  0.02742  0.52639  0.41823  1.0000
  C   C78       1.0  0.04431  0.54347  0.50842  1.0000
  H   H58       1.0  0.06349  0.53091  0.53256  1.0000
  H   H59       1.0  0.01946  0.53544  0.55728  1.0000
  H   H60       1.0  0.06298  0.57721  0.50540  1.0000
  N   N6        1.0  0.98553  0.50584  0.40768  1.0000
