data_image0
_chemical_formula_structural       C12H6CH2C2O2C12H6CH2C2O2C12H6CH2C2O2C3NOCHNHC3NOCHNHC3NOCHNHC3NOCHNHC3NOCHNHC3NOCHNHC12H6C2H2C2O2C12H6C2H2C2O2C12H6C2H2C2O2C3NOCHNHC3NOCHNHC3NOCHNHC3NOCHNHC3NOCHNHC3NOCHNH
_chemical_formula_sum              "C141 H72 O24 N24"
_cell_length_a       34.4673
_cell_length_b       34.4674
_cell_length_c       15.0513
_cell_angle_alpha    90
_cell_angle_beta     90
_cell_angle_gamma    120

_space_group_name_H-M_alt    "P 1"
_space_group_IT_number       1

loop_
  _space_group_symop_operation_xyz
  'x, y, z'

loop_
  _atom_site_type_symbol
  _atom_site_label
  _atom_site_symmetry_multiplicity
  _atom_site_fract_x
  _atom_site_fract_y
  _atom_site_fract_z
  _atom_site_occupancy
  C   C1        1.0  0.96744  0.50970  0.27545  1.0000
  C   C2        1.0  0.96872  0.51043  0.18100  1.0000
  C   C3        1.0  0.02620  0.48617  0.18101  1.0000
  C   C4        1.0  0.02745  0.48687  0.27546  1.0000
  C   C5        1.0  0.05918  0.47817  0.31784  1.0000
  C   C6        1.0  0.08940  0.47036  0.26835  1.0000
  C   C7        1.0  0.08568  0.46754  0.17503  1.0000
  C   C8        1.0  0.05423  0.47515  0.13183  1.0000
  C   C9        1.0  0.94068  0.52141  0.13180  1.0000
  C   C10       1.0  0.90922  0.52902  0.17498  1.0000
  C   C11       1.0  0.90548  0.52619  0.26829  1.0000
  C   C12       1.0  0.93572  0.51841  0.31781  1.0000
  H   H1        1.0  0.06221  0.58087  0.27433  1.0000
  H   H2        1.0  0.93264  0.41573  0.27428  1.0000
  H   H3        1.0  0.10683  0.46147  0.13743  1.0000
  H   H4        1.0  0.05345  0.47468  0.06382  1.0000
  H   H5        1.0  0.94151  0.52194  0.06379  1.0000
  H   H6        1.0  0.88811  0.53514  0.13736  1.0000
  C   C13       1.0  0.99746  0.49829  0.12948  1.0000
  H   H7        1.0  0.01911  0.52677  0.08694  1.0000
  H   H8        1.0  0.97581  0.46981  0.08695  1.0000
  C   C14       1.0  0.86924  0.52700  0.31005  1.0000
  C   C15       1.0  0.12566  0.46961  0.31014  1.0000
  O   O1        1.0  0.11586  0.67529  0.28314  1.0000
  O   O2        1.0  0.87895  0.32121  0.28326  1.0000
  C   C16       1.0  0.48603  0.45688  0.27549  1.0000
  C   C17       1.0  0.48533  0.45743  0.18104  1.0000
  C   C18       1.0  0.50955  0.53917  0.18102  1.0000
  C   C19       1.0  0.50888  0.53973  0.27548  1.0000
  C   C20       1.0  0.51760  0.58017  0.31783  1.0000
  C   C21       1.0  0.52538  0.61818  0.26832  1.0000
  C   C22       1.0  0.52821  0.61727  0.17501  1.0000
  C   C23       1.0  0.52053  0.57818  0.13182  1.0000
  C   C24       1.0  0.47434  0.41840  0.13186  1.0000
  C   C25       1.0  0.46675  0.37934  0.17506  1.0000
  C   C26       1.0  0.46956  0.37843  0.26838  1.0000
  C   C27       1.0  0.47733  0.41645  0.31787  1.0000
  H   H9        1.0  0.41490  0.48055  0.27430  1.0000
  H   H10       1.0  0.58003  0.51612  0.27432  1.0000
  H   H11       1.0  0.53427  0.64449  0.13738  1.0000
  H   H12       1.0  0.52105  0.57789  0.06381  1.0000
  H   H13       1.0  0.47381  0.41868  0.06385  1.0000
  H   H14       1.0  0.46065  0.35211  0.13746  1.0000
  C   C28       1.0  0.49743  0.49829  0.12950  1.0000
  H   H15       1.0  0.46893  0.49144  0.08700  1.0000
  H   H16       1.0  0.52590  0.50513  0.08695  1.0000
  C   C29       1.0  0.46881  0.34142  0.31019  1.0000
  C   C30       1.0  0.52618  0.65524  0.31005  1.0000
  O   O3        1.0  0.32039  0.43968  0.28328  1.0000
  O   O4        1.0  0.67449  0.55690  0.28326  1.0000
  C   C31       1.0  0.53889  0.02830  0.27544  1.0000
  C   C32       1.0  0.53832  0.02705  0.18099  1.0000
  C   C33       1.0  0.45659  0.96954  0.18100  1.0000
  C   C34       1.0  0.45604  0.96827  0.27545  1.0000
  C   C35       1.0  0.41562  0.93654  0.31782  1.0000
  C   C36       1.0  0.37758  0.90633  0.26833  1.0000
  C   C37       1.0  0.37848  0.91006  0.17502  1.0000
  C   C38       1.0  0.41757  0.94146  0.13181  1.0000
  C   C39       1.0  0.57734  0.05511  0.13178  1.0000
  C   C40       1.0  0.61642  0.08653  0.17497  1.0000
  C   C41       1.0  0.61732  0.09026  0.26828  1.0000
  C   C42       1.0  0.57933  0.06000  0.31781  1.0000
  H   H17       1.0  0.51526  0.93351  0.27431  1.0000
  H   H18       1.0  0.47969  0.06307  0.27426  1.0000
  H   H19       1.0  0.35126  0.88891  0.13740  1.0000
  H   H20       1.0  0.41784  0.94231  0.06381  1.0000
  H   H21       1.0  0.57705  0.05427  0.06378  1.0000
  H   H22       1.0  0.64364  0.10769  0.13735  1.0000
  C   C43       1.0  0.49745  0.99829  0.12946  1.0000
  H   H23       1.0  0.50430  0.97665  0.08694  1.0000
  H   H24       1.0  0.49060  0.01992  0.08693  1.0000
  C   C44       1.0  0.65436  0.12652  0.31004  1.0000
  C   C45       1.0  0.34055  0.87007  0.31010  1.0000
  O   O5        1.0  0.55599  0.87981  0.28313  1.0000
  O   O6        1.0  0.43887  0.11674  0.28320  1.0000
  C   C46       1.0  0.20475  0.49351  0.30485  1.0000
  C   C47       1.0  0.23513  0.49450  0.24047  1.0000
  C   C48       1.0  0.27413  0.49447  0.26505  1.0000
  N   N1        1.0  0.29614  0.49728  0.19044  1.0000
  O   O7        1.0  0.23165  0.49627  0.15057  1.0000
  C   C49       1.0  0.27049  0.49807  0.12421  1.0000
  H   H25       1.0  0.27949  0.50020  0.05901  1.0000
  N   N2        1.0  0.16805  0.49542  0.27830  1.0000
  H   H26       1.0  0.17240  0.51487  0.22761  1.0000
  C   C50       1.0  0.50220  0.71038  0.30486  1.0000
  C   C51       1.0  0.50121  0.73977  0.24048  1.0000
  C   C52       1.0  0.50123  0.77879  0.26505  1.0000
  N   N3        1.0  0.49845  0.79801  0.19044  1.0000
  O   O8        1.0  0.49949  0.73454  0.15058  1.0000
  C   C53       1.0  0.49776  0.77162  0.12419  1.0000
  H   H27       1.0  0.49551  0.77842  0.05902  1.0000
  N   N4        1.0  0.50034  0.67179  0.27827  1.0000
  H   H28       1.0  0.48093  0.65673  0.22751  1.0000
  C   C54       1.0  0.28535  0.79098  0.30486  1.0000
  C   C55       1.0  0.25594  0.76062  0.24049  1.0000
  C   C56       1.0  0.21687  0.72166  0.26508  1.0000
  N   N5        1.0  0.19768  0.69963  0.19048  1.0000
  O   O9        1.0  0.26118  0.76410  0.15059  1.0000
  C   C57       1.0  0.22408  0.72530  0.12423  1.0000
  H   H29       1.0  0.21732  0.71619  0.05906  1.0000
  N   N6        1.0  0.32396  0.82768  0.27827  1.0000
  H   H30       1.0  0.33903  0.82332  0.22755  1.0000
  C   C58       1.0  0.79011  0.50306  0.30478  1.0000
  C   C59       1.0  0.75974  0.50210  0.24040  1.0000
  C   C60       1.0  0.72074  0.50212  0.26499  1.0000
  N   N7        1.0  0.69872  0.49931  0.19040  1.0000
  O   O10       1.0  0.76321  0.50032  0.15050  1.0000
  C   C61       1.0  0.72439  0.49859  0.12415  1.0000
  H   H31       1.0  0.71531  0.49629  0.05898  1.0000
  N   N8        1.0  0.82686  0.50125  0.27815  1.0000
  H   H32       1.0  0.82251  0.48180  0.22747  1.0000
  C   C62       1.0  0.49265  0.28618  0.30483  1.0000
  C   C63       1.0  0.49366  0.25680  0.24044  1.0000
  C   C64       1.0  0.49364  0.21778  0.26500  1.0000
  N   N9        1.0  0.49646  0.19859  0.19040  1.0000
  O   O11       1.0  0.49544  0.26207  0.15054  1.0000
  C   C65       1.0  0.49725  0.22503  0.12417  1.0000
  H   H33       1.0  0.49940  0.21818  0.05898  1.0000
  N   N10       1.0  0.49457  0.32480  0.27829  1.0000
  H   H34       1.0  0.51403  0.33990  0.22761  1.0000
  C   C66       1.0  0.70950  0.20563  0.30488  1.0000
  C   C67       1.0  0.73891  0.23600  0.24050  1.0000
  C   C68       1.0  0.77793  0.27500  0.26508  1.0000
  N   N11       1.0  0.79717  0.29698  0.19047  1.0000
  O   O12       1.0  0.73368  0.23249  0.15060  1.0000
  C   C69       1.0  0.77079  0.27129  0.12422  1.0000
  H   H35       1.0  0.77760  0.28034  0.05904  1.0000
  N   N12       1.0  0.67091  0.16891  0.27828  1.0000
  H   H36       1.0  0.65586  0.17326  0.22752  1.0000
  C   C70       1.0  0.96744  0.45685  0.38437  1.0000
  C   C71       1.0  0.96870  0.45740  0.47882  1.0000
  C   C72       1.0  0.02617  0.53915  0.47884  1.0000
  C   C73       1.0  0.02744  0.53970  0.38439  1.0000
  C   C74       1.0  0.05421  0.57817  0.52806  1.0000
  C   C75       1.0  0.08565  0.61724  0.48488  1.0000
  C   C76       1.0  0.08939  0.61816  0.39157  1.0000
  C   C77       1.0  0.05918  0.58013  0.34205  1.0000
  C   C78       1.0  0.93574  0.41642  0.34198  1.0000
  C   C79       1.0  0.90547  0.37841  0.39149  1.0000
  C   C80       1.0  0.90921  0.37931  0.48480  1.0000
  C   C81       1.0  0.94067  0.41836  0.52801  1.0000
  H   H37       1.0  0.88804  0.35209  0.52241  1.0000
  H   H38       1.0  0.94145  0.41866  0.59601  1.0000
  H   H39       1.0  0.05336  0.57788  0.59606  1.0000
  H   H40       1.0  0.10676  0.64448  0.52250  1.0000
  H   H41       1.0  0.06220  0.48047  0.38556  1.0000
  H   H42       1.0  0.93266  0.51607  0.38552  1.0000
  C   C82       1.0  0.99745  0.49828  0.32992  1.0000
  C   C83       1.0  0.99743  0.49827  0.53037  1.0000
  H   H43       1.0  0.97577  0.50509  0.57288  1.0000
  H   H44       1.0  0.01907  0.49144  0.57290  1.0000
  C   C84       1.0  0.12563  0.65522  0.34982  1.0000
  C   C85       1.0  0.86919  0.34140  0.34970  1.0000
  O   O13       1.0  0.11589  0.43965  0.37659  1.0000
  O   O14       1.0  0.87900  0.55683  0.37674  1.0000
  C   C86       1.0  0.53887  0.50972  0.38441  1.0000
  C   C87       1.0  0.53832  0.51042  0.47886  1.0000
  C   C88       1.0  0.45658  0.48619  0.47885  1.0000
  C   C89       1.0  0.45603  0.48689  0.38440  1.0000
  C   C90       1.0  0.41756  0.47524  0.52803  1.0000
  C   C91       1.0  0.37849  0.46761  0.48482  1.0000
  C   C92       1.0  0.37759  0.47042  0.39151  1.0000
  C   C93       1.0  0.41559  0.47816  0.34201  1.0000
  C   C94       1.0  0.57929  0.51840  0.34204  1.0000
  C   C95       1.0  0.61732  0.52620  0.39155  1.0000
  C   C96       1.0  0.61640  0.52900  0.48487  1.0000
  C   C97       1.0  0.57732  0.52135  0.52806  1.0000
  H   H45       1.0  0.64363  0.53509  0.52248  1.0000
  H   H46       1.0  0.57705  0.52191  0.59607  1.0000
  H   H47       1.0  0.41783  0.47467  0.59603  1.0000
  H   H48       1.0  0.35126  0.46152  0.52242  1.0000
  H   H49       1.0  0.51526  0.58088  0.38555  1.0000
  H   H50       1.0  0.47967  0.41574  0.38558  1.0000
  C   C98       1.0  0.49745  0.49830  0.32994  1.0000
  C   C99       1.0  0.49744  0.49830  0.53039  1.0000
  H   H51       1.0  0.49060  0.46981  0.57291  1.0000
  H   H52       1.0  0.50429  0.52678  0.57293  1.0000
  C   C100      1.0  0.34058  0.46967  0.34968  1.0000
  C   C101      1.0  0.65435  0.52698  0.34978  1.0000
  O   O15       1.0  0.55598  0.67530  0.37679  1.0000
  O   O16       1.0  0.43882  0.32123  0.37657  1.0000
  C   C102      1.0  0.48604  0.02829  0.38435  1.0000
  C   C103      1.0  0.48532  0.02703  0.47881  1.0000
  C   C104      1.0  0.50960  0.96955  0.47883  1.0000
  C   C105      1.0  0.50889  0.96829  0.38437  1.0000
  C   C106      1.0  0.52057  0.94151  0.52804  1.0000
  C   C107      1.0  0.52823  0.91008  0.48485  1.0000
  C   C108      1.0  0.52537  0.90633  0.39155  1.0000
  C   C109      1.0  0.51761  0.93657  0.34202  1.0000
  C   C110      1.0  0.47729  0.05998  0.34196  1.0000
  C   C111      1.0  0.46958  0.09027  0.39147  1.0000
  C   C112      1.0  0.46676  0.08655  0.48479  1.0000
  C   C113      1.0  0.47433  0.05507  0.52799  1.0000
  H   H53       1.0  0.46070  0.10771  0.52239  1.0000
  H   H54       1.0  0.47385  0.05430  0.59600  1.0000
  H   H55       1.0  0.52111  0.94234  0.59604  1.0000
  H   H56       1.0  0.53428  0.88893  0.52249  1.0000
  H   H57       1.0  0.41489  0.93351  0.38554  1.0000
  H   H58       1.0  0.58002  0.06308  0.38552  1.0000
  C   C114      1.0  0.49746  0.99829  0.32990  1.0000
  C   C115      1.0  0.49747  0.99830  0.53035  1.0000
  H   H59       1.0  0.52595  0.01996  0.57286  1.0000
  H   H60       1.0  0.46899  0.97665  0.57289  1.0000
  C   C116      1.0  0.52616  0.87007  0.34980  1.0000
  C   C117      1.0  0.46881  0.12652  0.34968  1.0000
  O   O17       1.0  0.32042  0.87985  0.37663  1.0000
  O   O18       1.0  0.67443  0.11678  0.37678  1.0000
  C   C118      1.0  0.28533  0.49349  0.35501  1.0000
  C   C119      1.0  0.25594  0.49447  0.41939  1.0000
  C   C120      1.0  0.21689  0.49440  0.39482  1.0000
  N   N13       1.0  0.19772  0.49728  0.46942  1.0000
  O   O19       1.0  0.26119  0.49624  0.50929  1.0000
  C   C121      1.0  0.22416  0.49807  0.53565  1.0000
  H   H61       1.0  0.21732  0.50026  0.60084  1.0000
  N   N14       1.0  0.32396  0.49543  0.38157  1.0000
  H   H62       1.0  0.33903  0.51488  0.43226  1.0000
  C   C122      1.0  0.50213  0.79094  0.35502  1.0000
  C   C123      1.0  0.50117  0.76057  0.41940  1.0000
  C   C124      1.0  0.50123  0.72159  0.39483  1.0000
  N   N15       1.0  0.49847  0.69960  0.46944  1.0000
  O   O20       1.0  0.49944  0.76408  0.50930  1.0000
  C   C125      1.0  0.49773  0.72527  0.53568  1.0000
  H   H63       1.0  0.49549  0.71623  0.60086  1.0000
  N   N16       1.0  0.50030  0.82768  0.38158  1.0000
  H   H64       1.0  0.48088  0.82334  0.43233  1.0000
  C   C126      1.0  0.20476  0.71041  0.35506  1.0000
  C   C127      1.0  0.23515  0.73980  0.41943  1.0000
  C   C128      1.0  0.27415  0.77882  0.39484  1.0000
  N   N17       1.0  0.29617  0.79803  0.46943  1.0000
  O   O21       1.0  0.23167  0.73456  0.50933  1.0000
  C   C129      1.0  0.27051  0.77162  0.53568  1.0000
  H   H65       1.0  0.27954  0.77847  0.60086  1.0000
  N   N18       1.0  0.16802  0.67185  0.38170  1.0000
  H   H66       1.0  0.17237  0.65675  0.43237  1.0000
  C   C130      1.0  0.70954  0.50309  0.35497  1.0000
  C   C131      1.0  0.73894  0.50212  0.41934  1.0000
  C   C132      1.0  0.77799  0.50221  0.39476  1.0000
  N   N19       1.0  0.79717  0.49934  0.46935  1.0000
  O   O22       1.0  0.73369  0.50036  0.50924  1.0000
  C   C133      1.0  0.77074  0.49856  0.53559  1.0000
  H   H67       1.0  0.77758  0.49637  0.60078  1.0000
  N   N20       1.0  0.67090  0.50114  0.38153  1.0000
  H   H68       1.0  0.65585  0.48171  0.43226  1.0000
  C   C134      1.0  0.49266  0.20559  0.35497  1.0000
  C   C135      1.0  0.49362  0.23595  0.41936  1.0000
  C   C136      1.0  0.49353  0.27492  0.39480  1.0000
  N   N21       1.0  0.49641  0.29696  0.46941  1.0000
  O   O23       1.0  0.49539  0.23246  0.50926  1.0000
  C   C137      1.0  0.49720  0.27131  0.53563  1.0000
  H   H69       1.0  0.49939  0.28034  0.60082  1.0000
  N   N22       1.0  0.49462  0.16891  0.38149  1.0000
  H   H70       1.0  0.51405  0.17328  0.43222  1.0000
  C   C138      1.0  0.79007  0.28624  0.35505  1.0000
  C   C139      1.0  0.75969  0.25684  0.41943  1.0000
  C   C140      1.0  0.72070  0.21781  0.39485  1.0000
  N   N23       1.0  0.69871  0.19859  0.46945  1.0000
  O   O24       1.0  0.76319  0.26208  0.50933  1.0000
  C   C141      1.0  0.72438  0.22499  0.53570  1.0000
  H   H71       1.0  0.71533  0.21818  0.60088  1.0000
  N   N24       1.0  0.82682  0.32480  0.38164  1.0000
  H   H72       1.0  0.82248  0.33993  0.43229  1.0000
