data_image0
_chemical_formula_structural       CHC2HCH2CH4CH4C3HCH3NHC3HCH3NHC2HNHC29H17C3O3C29H17C3O3C3HCH3NHC3HCH3NHC2H3NH
_chemical_formula_sum              "C90 H72 N6 O6"
_cell_length_a       45.0747
_cell_length_b       45.0746
_cell_length_c       14.9568
_cell_angle_alpha    90
_cell_angle_beta     90
_cell_angle_gamma    120

_space_group_name_H-M_alt    "P 1"
_space_group_IT_number       1

loop_
  _space_group_symop_operation_xyz
  'x, y, z'

loop_
  _atom_site_type_symbol
  _atom_site_label
  _atom_site_symmetry_multiplicity
  _atom_site_fract_x
  _atom_site_fract_y
  _atom_site_fract_z
  _atom_site_occupancy
  C   C1        1.0  0.02043  0.51290  0.25397  1.0000
  H   H1        1.0  0.02414  0.50081  0.11879  1.0000
  C   C2        1.0  0.01968  0.50323  0.41494  1.0000
  C   C3        1.0  0.03704  0.52246  0.16453  1.0000
  H   H2        1.0  0.03510  0.54397  0.13777  1.0000
  C   C4        1.0  0.03831  0.51519  0.33433  1.0000
  H   H3        1.0  0.03276  0.50522  0.47272  1.0000
  H   H4        1.0  0.06399  0.52972  0.16594  1.0000
  C   C5        1.0  0.40919  0.85570  0.31459  1.0000
  H   H5        1.0  0.39843  0.87063  0.30301  1.0000
  H   H6        1.0  0.36170  0.81030  0.30448  1.0000
  H   H7        1.0  0.47503  0.60511  0.30308  1.0000
  H   H8        1.0  0.13298  0.52858  0.30305  1.0000
  C   C6        1.0  0.59514  0.14718  0.35783  1.0000
  H   H9        1.0  0.60589  0.13225  0.36953  1.0000
  H   H10       1.0  0.64263  0.19258  0.36801  1.0000
  H   H11       1.0  0.52929  0.39775  0.36944  1.0000
  H   H12       1.0  0.87135  0.47434  0.36937  1.0000
  C   C7        1.0  0.49072  0.50826  0.25397  1.0000
  C   C8        1.0  0.50395  0.48570  0.25778  1.0000
  C   C9        1.0  0.51590  0.47901  0.33837  1.0000
  H   H13       1.0  0.50592  0.47460  0.19998  1.0000
  C   C10       1.0  0.48115  0.51532  0.16454  1.0000
  H   H14       1.0  0.47389  0.53501  0.16599  1.0000
  H   H15       1.0  0.45965  0.49188  0.13776  1.0000
  H   H16       1.0  0.50281  0.52409  0.11880  1.0000
  N   N1        1.0  0.52881  0.45717  0.33517  1.0000
  H   H17       1.0  0.51443  0.43514  0.30644  1.0000
  C   C11       1.0  0.49532  0.98321  0.25371  1.0000
  C   C12       1.0  0.51791  0.01899  0.25768  1.0000
  C   C13       1.0  0.52461  0.03759  0.33835  1.0000
  H   H18       1.0  0.52906  0.03209  0.19994  1.0000
  C   C14       1.0  0.48831  0.96663  0.16422  1.0000
  H   H19       1.0  0.46863  0.93967  0.16556  1.0000
  H   H20       1.0  0.51177  0.96861  0.13746  1.0000
  H   H21       1.0  0.47954  0.97953  0.11852  1.0000
  N   N2        1.0  0.54646  0.07234  0.33529  1.0000
  H   H22       1.0  0.56849  0.07999  0.30656  1.0000
  C   C15       1.0  0.98464  0.49968  0.25784  1.0000
  C   C16       1.0  0.96601  0.48773  0.33845  1.0000
  H   H23       1.0  0.97156  0.49771  0.20006  1.0000
  N   N3        1.0  0.93125  0.47483  0.33534  1.0000
  H   H24       1.0  0.92366  0.48925  0.30658  1.0000
  C   C17       1.0  0.44506  0.87060  0.32610  1.0000
  C   C18       1.0  0.45813  0.84802  0.33696  1.0000
  C   C19       1.0  0.43641  0.81224  0.33671  1.0000
  C   C20       1.0  0.40062  0.79759  0.32581  1.0000
  C   C21       1.0  0.38740  0.81992  0.31436  1.0000
  C   C22       1.0  0.37871  0.76231  0.32082  1.0000
  C   C23       1.0  0.37969  0.73946  0.37691  1.0000
  C   C24       1.0  0.35767  0.70428  0.37141  1.0000
  C   C25       1.0  0.32168  0.68999  0.37201  1.0000
  C   C26       1.0  0.29936  0.65412  0.37148  1.0000
  C   C27       1.0  0.31364  0.63242  0.37204  1.0000
  C   C28       1.0  0.34951  0.64597  0.37148  1.0000
  C   C29       1.0  0.37121  0.68196  0.37199  1.0000
  C   C30       1.0  0.36267  0.62394  0.37697  1.0000
  C   C31       1.0  0.38648  0.62491  0.32085  1.0000
  C   C32       1.0  0.39984  0.60299  0.32584  1.0000
  C   C33       1.0  0.43539  0.61619  0.31437  1.0000
  C   C34       1.0  0.37867  0.56720  0.33666  1.0000
  C   C35       1.0  0.39271  0.54545  0.33694  1.0000
  C   C36       1.0  0.42836  0.55851  0.32616  1.0000
  C   C37       1.0  0.44935  0.59437  0.31471  1.0000
  C   C38       1.0  0.26417  0.64096  0.37695  1.0000
  C   C39       1.0  0.24133  0.61714  0.32085  1.0000
  C   C40       1.0  0.20605  0.60378  0.32581  1.0000
  C   C41       1.0  0.19142  0.62495  0.33659  1.0000
  C   C42       1.0  0.18370  0.56824  0.31433  1.0000
  C   C43       1.0  0.14792  0.55427  0.31461  1.0000
  C   C44       1.0  0.13305  0.57526  0.32611  1.0000
  C   C45       1.0  0.15564  0.61091  0.33686  1.0000
  H   H25       1.0  0.48385  0.85738  0.34477  1.0000
  H   H26       1.0  0.44713  0.79698  0.34282  1.0000
  H   H27       1.0  0.39725  0.69204  0.37435  1.0000
  H   H28       1.0  0.31159  0.70594  0.37435  1.0000
  H   H29       1.0  0.29769  0.60638  0.37439  1.0000
  H   H30       1.0  0.20670  0.65093  0.34269  1.0000
  H   H31       1.0  0.45148  0.64188  0.30455  1.0000
  H   H32       1.0  0.37633  0.51974  0.34471  1.0000
  H   H33       1.0  0.35269  0.55650  0.34277  1.0000
  H   H34       1.0  0.14631  0.62729  0.34463  1.0000
  H   H35       1.0  0.19331  0.55214  0.30453  1.0000
  H   H36       1.0  0.39575  0.64277  0.27329  1.0000
  H   H37       1.0  0.35332  0.60622  0.42478  1.0000
  H   H38       1.0  0.36084  0.75372  0.27329  1.0000
  H   H39       1.0  0.39742  0.74783  0.42470  1.0000
  H   H40       1.0  0.24992  0.60786  0.27332  1.0000
  H   H41       1.0  0.25580  0.65033  0.42473  1.0000
  C   C46       1.0  0.09678  0.56171  0.32221  1.0000
  C   C47       1.0  0.44190  0.53578  0.32230  1.0000
  C   C48       1.0  0.46776  0.90687  0.32214  1.0000
  O   O1        1.0  0.42011  0.50257  0.30083  1.0000
  O   O2        1.0  0.50098  0.91830  0.30069  1.0000
  O   O3        1.0  0.08535  0.58351  0.30080  1.0000
  C   C49       1.0  0.55927  0.13229  0.34632  1.0000
  C   C50       1.0  0.54620  0.15487  0.33545  1.0000
  C   C51       1.0  0.56793  0.19065  0.33568  1.0000
  C   C52       1.0  0.60372  0.20529  0.34655  1.0000
  C   C53       1.0  0.61694  0.18296  0.35809  1.0000
  C   C54       1.0  0.62563  0.24058  0.35157  1.0000
  C   C55       1.0  0.62466  0.26343  0.29549  1.0000
  C   C56       1.0  0.64668  0.29861  0.30100  1.0000
  C   C57       1.0  0.68267  0.31290  0.30041  1.0000
  C   C58       1.0  0.70499  0.34876  0.30095  1.0000
  C   C59       1.0  0.69070  0.37046  0.30037  1.0000
  C   C60       1.0  0.65483  0.35692  0.30093  1.0000
  C   C61       1.0  0.63313  0.32093  0.30041  1.0000
  C   C62       1.0  0.64167  0.37894  0.29539  1.0000
  C   C63       1.0  0.61786  0.37798  0.35150  1.0000
  C   C64       1.0  0.60449  0.39989  0.34647  1.0000
  C   C65       1.0  0.56894  0.38668  0.35800  1.0000
  C   C66       1.0  0.62564  0.43568  0.33557  1.0000
  C   C67       1.0  0.61159  0.45742  0.33530  1.0000
  C   C68       1.0  0.57595  0.44435  0.34620  1.0000
  C   C69       1.0  0.55496  0.40848  0.35771  1.0000
  C   C70       1.0  0.74017  0.36193  0.29542  1.0000
  C   C71       1.0  0.76303  0.38575  0.35150  1.0000
  C   C72       1.0  0.79831  0.39913  0.34647  1.0000
  C   C73       1.0  0.81295  0.37798  0.33563  1.0000
  C   C74       1.0  0.82064  0.43467  0.35801  1.0000
  C   C75       1.0  0.85642  0.44866  0.35774  1.0000
  C   C76       1.0  0.87131  0.42768  0.34621  1.0000
  C   C77       1.0  0.84873  0.39203  0.33537  1.0000
  H   H42       1.0  0.52049  0.14552  0.32766  1.0000
  H   H43       1.0  0.55722  0.20592  0.32956  1.0000
  H   H44       1.0  0.60710  0.31084  0.29803  1.0000
  H   H45       1.0  0.69276  0.29695  0.29806  1.0000
  H   H46       1.0  0.70665  0.39650  0.29797  1.0000
  H   H47       1.0  0.79768  0.35200  0.32948  1.0000
  H   H48       1.0  0.55286  0.36099  0.36793  1.0000
  H   H49       1.0  0.62796  0.48313  0.32750  1.0000
  H   H50       1.0  0.65162  0.44639  0.32940  1.0000
  H   H51       1.0  0.85808  0.37567  0.32757  1.0000
  H   H52       1.0  0.81102  0.45076  0.36786  1.0000
  H   H53       1.0  0.60860  0.36014  0.39908  1.0000
  H   H54       1.0  0.65102  0.39665  0.24755  1.0000
  H   H55       1.0  0.64348  0.24916  0.39913  1.0000
  H   H56       1.0  0.60694  0.25506  0.24767  1.0000
  H   H57       1.0  0.75444  0.39503  0.39906  1.0000
  H   H58       1.0  0.74854  0.35257  0.24760  1.0000
  C   C78       1.0  0.90758  0.44125  0.35022  1.0000
  C   C79       1.0  0.56238  0.46706  0.35018  1.0000
  C   C80       1.0  0.53657  0.09602  0.35032  1.0000
  O   O4        1.0  0.58417  0.50027  0.37172  1.0000
  O   O5        1.0  0.50335  0.08460  0.37181  1.0000
  O   O6        1.0  0.91901  0.41946  0.37170  1.0000
  C   C81       1.0  0.48843  0.52385  0.33434  1.0000
  C   C82       1.0  0.51360  0.49458  0.41875  1.0000
  C   C83       1.0  0.50039  0.51716  0.41493  1.0000
  H   H59       1.0  0.49840  0.52824  0.47274  1.0000
  C   C84       1.0  0.52318  0.48754  0.50818  1.0000
  H   H60       1.0  0.53047  0.46786  0.50673  1.0000
  H   H61       1.0  0.50152  0.47875  0.55391  1.0000
  H   H62       1.0  0.54466  0.51099  0.53497  1.0000
  N   N4        1.0  0.47543  0.54560  0.33767  1.0000
  H   H63       1.0  0.48990  0.56773  0.36589  1.0000
  C   C85       1.0  0.47970  0.96529  0.33401  1.0000
  C   C86       1.0  0.50898  0.01967  0.41865  1.0000
  C   C87       1.0  0.48639  0.98389  0.41468  1.0000
  H   H64       1.0  0.47526  0.97079  0.47242  1.0000
  C   C88       1.0  0.51602  0.03624  0.50814  1.0000
  H   H65       1.0  0.53571  0.06320  0.50681  1.0000
  H   H66       1.0  0.52478  0.02333  0.55382  1.0000
  H   H67       1.0  0.49257  0.03428  0.53494  1.0000
  N   N5        1.0  0.45785  0.93054  0.33703  1.0000
  H   H68       1.0  0.43582  0.92293  0.36577  1.0000
  C   C89       1.0  0.98390  0.49002  0.41880  1.0000
  C   C90       1.0  0.96728  0.48044  0.50825  1.0000
  H   H69       1.0  0.94032  0.47314  0.50683  1.0000
  H   H70       1.0  0.98016  0.50210  0.55398  1.0000
  H   H71       1.0  0.96926  0.45896  0.53501  1.0000
  N   N6        1.0  0.07307  0.52819  0.33762  1.0000
  H   H72       1.0  0.08073  0.51372  0.36582  1.0000
