data_image0
_chemical_formula_structural       C18H12C3H2C4HNO4C7H4C5H3NO2C6H2C6H4N2O2C18H12C3H2C4HNO4C7H4C5H3NO2C6H2C6H4N2O2C18H12C3H2C4HNO4C7H4C5H3NO2C6H2C6H4N2O2C18H12C3H2C4HNO4C7H4C5H3NO2C6H2C6H4N2O2
_chemical_formula_sum              "C196 H112 N16 O32"
_cell_length_a       32.7696
_cell_length_b       32.7703
_cell_length_c       15.0048
_cell_angle_alpha    90
_cell_angle_beta     90
_cell_angle_gamma    89.9486

_space_group_name_H-M_alt    "P 1"
_space_group_IT_number       1

loop_
  _space_group_symop_operation_xyz
  'x, y, z'

loop_
  _atom_site_type_symbol
  _atom_site_label
  _atom_site_symmetry_multiplicity
  _atom_site_fract_x
  _atom_site_fract_y
  _atom_site_fract_z
  _atom_site_occupancy
  C   C1        1.0  0.99770  0.39963  0.29746  1.0000
  C   C2        1.0  0.03494  0.41477  0.26283  1.0000
  C   C3        1.0  0.03568  0.44856  0.20504  1.0000
  C   C4        1.0  0.99918  0.46720  0.17445  1.0000
  C   C5        1.0  0.46284  0.45550  0.21939  1.0000
  C   C6        1.0  0.46198  0.42238  0.27882  1.0000
  C   C7        1.0  0.99866  0.00096  0.10413  1.0000
  C   C8        1.0  0.00146  0.03821  0.16495  1.0000
  C   C9        1.0  0.46648  0.05749  0.20176  1.0000
  C   C10       1.0  0.46967  0.09269  0.25496  1.0000
  C   C11       1.0  0.00826  0.10917  0.27656  1.0000
  C   C12       1.0  0.04338  0.08766  0.24875  1.0000
  C   C13       1.0  0.03991  0.05248  0.19582  1.0000
  C   C14       1.0  0.03243  0.00048  0.03384  1.0000
  C   C15       1.0  0.46142  0.49807  0.04329  1.0000
  C   C16       1.0  0.44218  0.03302  0.00622  1.0000
  C   C17       1.0  0.44714  0.45959  0.01262  1.0000
  C   C18       1.0  0.05098  0.46397  0.00305  1.0000
  H   H1        1.0  0.45261  0.06161  0.02073  1.0000
  H   H2        1.0  0.46121  0.43324  0.03230  1.0000
  H   H3        1.0  0.04182  0.43629  0.02705  1.0000
  H   H4        1.0  0.03018  0.06393  0.00354  1.0000
  H   H5        1.0  0.06629  0.03842  0.17627  1.0000
  H   H6        1.0  0.07190  0.09831  0.26404  1.0000
  H   H7        1.0  0.44344  0.10743  0.27339  1.0000
  H   H8        1.0  0.43790  0.04706  0.18714  1.0000
  H   H9        1.0  0.43574  0.46951  0.20498  1.0000
  H   H10       1.0  0.06336  0.45777  0.18109  1.0000
  H   H11       1.0  0.06178  0.39961  0.27358  1.0000
  H   H12       1.0  0.43440  0.41362  0.30441  1.0000
  C   C19       1.0  0.50022  0.27480  0.37666  1.0000
  C   C20       1.0  0.46615  0.29095  0.33120  1.0000
  C   C21       1.0  0.46396  0.33281  0.31183  1.0000
  H   H13       1.0  0.44517  0.27189  0.30244  1.0000
  H   H14       1.0  0.44124  0.34210  0.26969  1.0000
  C   C22       1.0  0.50854  0.23255  0.36605  1.0000
  C   C23       1.0  0.01151  0.14901  0.31378  1.0000
  C   C24       1.0  0.53465  0.17880  0.26837  1.0000
  C   C25       1.0  0.03309  0.22040  0.29261  1.0000
  H   H15       1.0  0.05048  0.17097  0.21205  1.0000
  N   N1        1.0  0.05356  0.25015  0.24036  1.0000
  O   O1        1.0  0.09142  0.24411  0.23872  1.0000
  O   O2        1.0  0.04037  0.25105  0.16170  1.0000
  O   O3        1.0  0.24868  0.45906  0.04678  1.0000
  O   O4        1.0  0.30069  0.52703  0.31685  1.0000
  C   C26       1.0  0.40699  0.02978  0.61967  1.0000
  C   C27       1.0  0.39050  0.49117  0.59825  1.0000
  C   C28       1.0  0.41199  0.45608  0.62627  1.0000
  C   C29       1.0  0.08485  0.46473  0.61211  1.0000
  C   C30       1.0  0.09999  0.00198  0.57751  1.0000
  C   C31       1.0  0.07725  0.03769  0.59614  1.0000
  C   C32       1.0  0.04417  0.03684  0.65572  1.0000
  H   H16       1.0  0.39226  0.05599  0.60111  1.0000
  H   H17       1.0  0.40135  0.42755  0.61112  1.0000
  H   H18       1.0  0.10000  0.43789  0.60131  1.0000
  H   H19       1.0  0.08608  0.06529  0.57076  1.0000
  C   C33       1.0  0.49551  0.35998  0.33761  1.0000
  C   C34       1.0  0.02780  0.34390  0.38988  1.0000
  C   C35       1.0  0.03042  0.30184  0.40842  1.0000
  C   C36       1.0  0.48608  0.20289  0.41441  1.0000
  C   C37       1.0  0.48798  0.16145  0.38782  1.0000
  H   H20       1.0  0.47062  0.14042  0.42105  1.0000
  H   H21       1.0  0.05154  0.36214  0.40906  1.0000
  H   H22       1.0  0.05636  0.29065  0.43755  1.0000
  N   N2        1.0  0.46127  0.21548  0.48668  1.0000
  O   O5        1.0  0.47237  0.19884  0.55815  1.0000
  O   O6        1.0  0.42434  0.20715  0.47336  1.0000
  C   C38       1.0  0.13969  0.50412  0.53753  1.0000
  C   C39       1.0  0.16687  0.03560  0.56354  1.0000
  C   C40       1.0  0.20871  0.03345  0.54405  1.0000
  C   C41       1.0  0.22484  0.49937  0.49861  1.0000
  C   C42       1.0  0.19779  0.46920  0.46672  1.0000
  C   C43       1.0  0.15570  0.47189  0.48499  1.0000
  H   H23       1.0  0.20894  0.44325  0.43759  1.0000
  H   H24       1.0  0.13746  0.44813  0.46592  1.0000
  C   C44       1.0  0.26707  0.49095  0.50916  1.0000
  C   C45       1.0  0.27926  0.46634  0.58247  1.0000
  C   C46       1.0  0.32086  0.46476  0.60659  1.0000
  C   C47       1.0  0.35064  0.48789  0.56113  1.0000
  C   C48       1.0  0.33818  0.51141  0.48707  1.0000
  C   C49       1.0  0.29672  0.01335  0.46061  1.0000
  H   H25       1.0  0.32873  0.44892  0.66287  1.0000
  H   H26       1.0  0.35920  0.02875  0.45377  1.0000
  H   H27       1.0  0.15754  0.05840  0.60544  1.0000
  H   H28       1.0  0.22781  0.05441  0.57274  1.0000
  N   N3        1.0  0.28412  0.03817  0.38836  1.0000
  N   N4        1.0  0.24951  0.44590  0.63476  1.0000
  O   O7        1.0  0.29251  0.07509  0.40162  1.0000
  O   O8        1.0  0.25551  0.40804  0.63632  1.0000
  C   C50       1.0  0.99770  0.89964  0.29746  1.0000
  C   C51       1.0  0.03494  0.91477  0.26283  1.0000
  C   C52       1.0  0.03568  0.94856  0.20504  1.0000
  C   C53       1.0  0.99918  0.96719  0.17445  1.0000
  C   C54       1.0  0.46284  0.95550  0.21939  1.0000
  C   C55       1.0  0.46198  0.92238  0.27882  1.0000
  C   C56       1.0  0.99866  0.50096  0.10413  1.0000
  C   C57       1.0  0.00147  0.53821  0.16495  1.0000
  C   C58       1.0  0.46648  0.55749  0.20176  1.0000
  C   C59       1.0  0.46967  0.59269  0.25496  1.0000
  C   C60       1.0  0.00826  0.60917  0.27656  1.0000
  C   C61       1.0  0.04338  0.58766  0.24875  1.0000
  C   C62       1.0  0.03991  0.55248  0.19582  1.0000
  C   C63       1.0  0.03243  0.50048  0.03384  1.0000
  C   C64       1.0  0.46142  0.99807  0.04329  1.0000
  C   C65       1.0  0.44218  0.53302  0.00622  1.0000
  C   C66       1.0  0.44714  0.95960  0.01262  1.0000
  C   C67       1.0  0.05098  0.96397  0.00305  1.0000
  H   H29       1.0  0.45261  0.56161  0.02073  1.0000
  H   H30       1.0  0.46121  0.93324  0.03230  1.0000
  H   H31       1.0  0.04182  0.93630  0.02705  1.0000
  H   H32       1.0  0.03018  0.56393  0.00354  1.0000
  H   H33       1.0  0.06629  0.53842  0.17627  1.0000
  H   H34       1.0  0.07190  0.59831  0.26404  1.0000
  H   H35       1.0  0.44344  0.60743  0.27339  1.0000
  H   H36       1.0  0.43790  0.54705  0.18714  1.0000
  H   H37       1.0  0.43574  0.96951  0.20498  1.0000
  H   H38       1.0  0.06336  0.95777  0.18109  1.0000
  H   H39       1.0  0.06178  0.89961  0.27358  1.0000
  H   H40       1.0  0.43440  0.91362  0.30441  1.0000
  C   C68       1.0  0.50022  0.77480  0.37666  1.0000
  C   C69       1.0  0.46615  0.79095  0.33120  1.0000
  C   C70       1.0  0.46396  0.83281  0.31183  1.0000
  H   H41       1.0  0.44517  0.77189  0.30244  1.0000
  H   H42       1.0  0.44124  0.84210  0.26969  1.0000
  C   C71       1.0  0.50854  0.73256  0.36605  1.0000
  C   C72       1.0  0.01151  0.64901  0.31378  1.0000
  C   C73       1.0  0.53465  0.67880  0.26837  1.0000
  C   C74       1.0  0.03309  0.72040  0.29261  1.0000
  H   H43       1.0  0.05048  0.67097  0.21205  1.0000
  N   N5        1.0  0.05356  0.75015  0.24036  1.0000
  O   O9        1.0  0.09142  0.74411  0.23872  1.0000
  O   O10       1.0  0.04037  0.75105  0.16170  1.0000
  O   O11       1.0  0.24868  0.95906  0.04678  1.0000
  O   O12       1.0  0.30069  0.02703  0.31685  1.0000
  C   C75       1.0  0.40699  0.52978  0.61967  1.0000
  C   C76       1.0  0.39050  0.99118  0.59825  1.0000
  C   C77       1.0  0.41199  0.95608  0.62627  1.0000
  C   C78       1.0  0.08485  0.96473  0.61211  1.0000
  C   C79       1.0  0.09999  0.50198  0.57751  1.0000
  C   C80       1.0  0.07725  0.53770  0.59614  1.0000
  C   C81       1.0  0.04417  0.53684  0.65572  1.0000
  H   H44       1.0  0.39226  0.55600  0.60111  1.0000
  H   H45       1.0  0.40135  0.92755  0.61112  1.0000
  H   H46       1.0  0.10000  0.93789  0.60131  1.0000
  H   H47       1.0  0.08608  0.56529  0.57076  1.0000
  C   C82       1.0  0.49551  0.85998  0.33761  1.0000
  C   C83       1.0  0.02780  0.84390  0.38988  1.0000
  C   C84       1.0  0.03042  0.80184  0.40842  1.0000
  C   C85       1.0  0.48608  0.70289  0.41441  1.0000
  C   C86       1.0  0.48798  0.66145  0.38782  1.0000
  H   H48       1.0  0.47062  0.64042  0.42105  1.0000
  H   H49       1.0  0.05154  0.86215  0.40906  1.0000
  H   H50       1.0  0.05636  0.79066  0.43755  1.0000
  N   N6        1.0  0.46127  0.71548  0.48668  1.0000
  O   O13       1.0  0.47237  0.69883  0.55815  1.0000
  O   O14       1.0  0.42434  0.70715  0.47336  1.0000
  C   C87       1.0  0.13969  0.00412  0.53753  1.0000
  C   C88       1.0  0.16687  0.53560  0.56354  1.0000
  C   C89       1.0  0.20871  0.53345  0.54405  1.0000
  C   C90       1.0  0.22484  0.99936  0.49861  1.0000
  C   C91       1.0  0.19779  0.96920  0.46672  1.0000
  C   C92       1.0  0.15570  0.97189  0.48499  1.0000
  H   H51       1.0  0.20894  0.94325  0.43759  1.0000
  H   H52       1.0  0.13746  0.94813  0.46592  1.0000
  C   C93       1.0  0.26707  0.99095  0.50916  1.0000
  C   C94       1.0  0.27926  0.96635  0.58247  1.0000
  C   C95       1.0  0.32086  0.96476  0.60659  1.0000
  C   C96       1.0  0.35064  0.98790  0.56113  1.0000
  C   C97       1.0  0.33818  0.01141  0.48707  1.0000
  C   C98       1.0  0.29672  0.51335  0.46061  1.0000
  H   H53       1.0  0.32873  0.94892  0.66287  1.0000
  H   H54       1.0  0.35920  0.52875  0.45377  1.0000
  H   H55       1.0  0.15754  0.55840  0.60544  1.0000
  H   H56       1.0  0.22781  0.55441  0.57274  1.0000
  N   N7        1.0  0.28412  0.53817  0.38836  1.0000
  N   N8        1.0  0.24951  0.94590  0.63476  1.0000
  O   O15       1.0  0.29251  0.57509  0.40162  1.0000
  O   O16       1.0  0.25551  0.90804  0.63632  1.0000
  C   C99       1.0  0.49770  0.39963  0.29746  1.0000
  C   C100      1.0  0.53494  0.41477  0.26283  1.0000
  C   C101      1.0  0.53568  0.44856  0.20504  1.0000
  C   C102      1.0  0.49918  0.46720  0.17445  1.0000
  C   C103      1.0  0.96284  0.45550  0.21939  1.0000
  C   C104      1.0  0.96198  0.42238  0.27882  1.0000
  C   C105      1.0  0.49866  0.00096  0.10413  1.0000
  C   C106      1.0  0.50147  0.03821  0.16495  1.0000
  C   C107      1.0  0.96649  0.05749  0.20176  1.0000
  C   C108      1.0  0.96967  0.09269  0.25496  1.0000
  C   C109      1.0  0.50826  0.10917  0.27656  1.0000
  C   C110      1.0  0.54338  0.08766  0.24875  1.0000
  C   C111      1.0  0.53991  0.05248  0.19582  1.0000
  C   C112      1.0  0.53243  0.00048  0.03384  1.0000
  C   C113      1.0  0.96142  0.49807  0.04329  1.0000
  C   C114      1.0  0.94218  0.03302  0.00622  1.0000
  C   C115      1.0  0.94714  0.45959  0.01262  1.0000
  C   C116      1.0  0.55098  0.46397  0.00305  1.0000
  H   H57       1.0  0.95261  0.06161  0.02073  1.0000
  H   H58       1.0  0.96120  0.43324  0.03230  1.0000
  H   H59       1.0  0.54182  0.43629  0.02705  1.0000
  H   H60       1.0  0.53018  0.06393  0.00354  1.0000
  H   H61       1.0  0.56629  0.03842  0.17627  1.0000
  H   H62       1.0  0.57190  0.09831  0.26404  1.0000
  H   H63       1.0  0.94344  0.10743  0.27339  1.0000
  H   H64       1.0  0.93790  0.04706  0.18714  1.0000
  H   H65       1.0  0.93574  0.46951  0.20498  1.0000
  H   H66       1.0  0.56336  0.45777  0.18109  1.0000
  H   H67       1.0  0.56178  0.39961  0.27358  1.0000
  H   H68       1.0  0.93440  0.41362  0.30441  1.0000
  C   C117      1.0  0.00022  0.27480  0.37666  1.0000
  C   C118      1.0  0.96615  0.29095  0.33120  1.0000
  C   C119      1.0  0.96396  0.33281  0.31183  1.0000
  H   H69       1.0  0.94517  0.27189  0.30244  1.0000
  H   H70       1.0  0.94124  0.34210  0.26969  1.0000
  C   C120      1.0  0.00854  0.23255  0.36605  1.0000
  C   C121      1.0  0.51151  0.14901  0.31378  1.0000
  C   C122      1.0  0.03465  0.17880  0.26837  1.0000
  C   C123      1.0  0.53309  0.22040  0.29261  1.0000
  H   H71       1.0  0.55048  0.17097  0.21205  1.0000
  N   N9        1.0  0.55356  0.25015  0.24036  1.0000
  O   O17       1.0  0.59142  0.24411  0.23872  1.0000
  O   O18       1.0  0.54038  0.25105  0.16170  1.0000
  O   O19       1.0  0.74868  0.45906  0.04678  1.0000
  O   O20       1.0  0.80069  0.52703  0.31685  1.0000
  C   C124      1.0  0.90699  0.02978  0.61967  1.0000
  C   C125      1.0  0.89050  0.49117  0.59825  1.0000
  C   C126      1.0  0.91199  0.45608  0.62627  1.0000
  C   C127      1.0  0.58485  0.46473  0.61211  1.0000
  C   C128      1.0  0.59999  0.00198  0.57751  1.0000
  C   C129      1.0  0.57725  0.03769  0.59614  1.0000
  C   C130      1.0  0.54417  0.03684  0.65572  1.0000
  H   H72       1.0  0.89226  0.05599  0.60111  1.0000
  H   H73       1.0  0.90135  0.42755  0.61112  1.0000
  H   H74       1.0  0.60000  0.43789  0.60131  1.0000
  H   H75       1.0  0.58608  0.06529  0.57076  1.0000
  C   C131      1.0  0.99551  0.35998  0.33761  1.0000
  C   C132      1.0  0.52780  0.34390  0.38988  1.0000
  C   C133      1.0  0.53042  0.30184  0.40842  1.0000
  C   C134      1.0  0.98608  0.20289  0.41441  1.0000
  C   C135      1.0  0.98798  0.16145  0.38782  1.0000
  H   H76       1.0  0.97062  0.14042  0.42105  1.0000
  H   H77       1.0  0.55154  0.36214  0.40906  1.0000
  H   H78       1.0  0.55636  0.29065  0.43755  1.0000
  N   N10       1.0  0.96127  0.21548  0.48668  1.0000
  O   O21       1.0  0.97237  0.19884  0.55815  1.0000
  O   O22       1.0  0.92435  0.20715  0.47336  1.0000
  C   C136      1.0  0.63969  0.50412  0.53753  1.0000
  C   C137      1.0  0.66687  0.03560  0.56354  1.0000
  C   C138      1.0  0.70871  0.03345  0.54405  1.0000
  C   C139      1.0  0.72484  0.49937  0.49861  1.0000
  C   C140      1.0  0.69779  0.46920  0.46672  1.0000
  C   C141      1.0  0.65570  0.47189  0.48499  1.0000
  H   H79       1.0  0.70894  0.44325  0.43759  1.0000
  H   H80       1.0  0.63747  0.44813  0.46592  1.0000
  C   C142      1.0  0.76707  0.49095  0.50916  1.0000
  C   C143      1.0  0.77926  0.46634  0.58247  1.0000
  C   C144      1.0  0.82086  0.46476  0.60659  1.0000
  C   C145      1.0  0.85065  0.48789  0.56113  1.0000
  C   C146      1.0  0.83818  0.51141  0.48707  1.0000
  C   C147      1.0  0.79672  0.01335  0.46061  1.0000
  H   H81       1.0  0.82873  0.44892  0.66287  1.0000
  H   H82       1.0  0.85920  0.02875  0.45377  1.0000
  H   H83       1.0  0.65754  0.05840  0.60544  1.0000
  H   H84       1.0  0.72781  0.05441  0.57274  1.0000
  N   N11       1.0  0.78412  0.03817  0.38836  1.0000
  N   N12       1.0  0.74951  0.44590  0.63476  1.0000
  O   O23       1.0  0.79251  0.07509  0.40162  1.0000
  O   O24       1.0  0.75552  0.40804  0.63632  1.0000
  C   C148      1.0  0.49770  0.89964  0.29746  1.0000
  C   C149      1.0  0.53494  0.91477  0.26283  1.0000
  C   C150      1.0  0.53568  0.94856  0.20504  1.0000
  C   C151      1.0  0.49918  0.96719  0.17445  1.0000
  C   C152      1.0  0.96284  0.95550  0.21939  1.0000
  C   C153      1.0  0.96198  0.92238  0.27882  1.0000
  C   C154      1.0  0.49866  0.50096  0.10413  1.0000
  C   C155      1.0  0.50147  0.53821  0.16495  1.0000
  C   C156      1.0  0.96648  0.55749  0.20176  1.0000
  C   C157      1.0  0.96967  0.59269  0.25496  1.0000
  C   C158      1.0  0.50826  0.60917  0.27656  1.0000
  C   C159      1.0  0.54338  0.58766  0.24875  1.0000
  C   C160      1.0  0.53991  0.55248  0.19582  1.0000
  C   C161      1.0  0.53243  0.50048  0.03384  1.0000
  C   C162      1.0  0.96142  0.99807  0.04329  1.0000
  C   C163      1.0  0.94218  0.53302  0.00622  1.0000
  C   C164      1.0  0.94714  0.95960  0.01262  1.0000
  C   C165      1.0  0.55098  0.96397  0.00305  1.0000
  H   H85       1.0  0.95261  0.56161  0.02073  1.0000
  H   H86       1.0  0.96120  0.93324  0.03230  1.0000
  H   H87       1.0  0.54182  0.93630  0.02705  1.0000
  H   H88       1.0  0.53018  0.56393  0.00354  1.0000
  H   H89       1.0  0.56629  0.53842  0.17627  1.0000
  H   H90       1.0  0.57190  0.59831  0.26404  1.0000
  H   H91       1.0  0.94344  0.60743  0.27339  1.0000
  H   H92       1.0  0.93790  0.54705  0.18714  1.0000
  H   H93       1.0  0.93574  0.96951  0.20498  1.0000
  H   H94       1.0  0.56336  0.95777  0.18109  1.0000
  H   H95       1.0  0.56178  0.89961  0.27358  1.0000
  H   H96       1.0  0.93440  0.91362  0.30441  1.0000
  C   C166      1.0  0.00022  0.77480  0.37666  1.0000
  C   C167      1.0  0.96615  0.79095  0.33120  1.0000
  C   C168      1.0  0.96396  0.83281  0.31183  1.0000
  H   H97       1.0  0.94517  0.77189  0.30244  1.0000
  H   H98       1.0  0.94124  0.84210  0.26969  1.0000
  C   C169      1.0  0.00854  0.73256  0.36605  1.0000
  C   C170      1.0  0.51151  0.64901  0.31378  1.0000
  C   C171      1.0  0.03465  0.67880  0.26837  1.0000
  C   C172      1.0  0.53309  0.72040  0.29261  1.0000
  H   H99       1.0  0.55048  0.67097  0.21205  1.0000
  N   N13       1.0  0.55356  0.75015  0.24036  1.0000
  O   O25       1.0  0.59142  0.74411  0.23872  1.0000
  O   O26       1.0  0.54038  0.75105  0.16170  1.0000
  O   O27       1.0  0.74868  0.95906  0.04678  1.0000
  O   O28       1.0  0.80069  0.02703  0.31685  1.0000
  C   C173      1.0  0.90699  0.52978  0.61967  1.0000
  C   C174      1.0  0.89050  0.99118  0.59825  1.0000
  C   C175      1.0  0.91199  0.95608  0.62627  1.0000
  C   C176      1.0  0.58485  0.96473  0.61211  1.0000
  C   C177      1.0  0.59999  0.50198  0.57751  1.0000
  C   C178      1.0  0.57725  0.53770  0.59614  1.0000
  C   C179      1.0  0.54417  0.53684  0.65572  1.0000
  H   H100      1.0  0.89226  0.55600  0.60111  1.0000
  H   H101      1.0  0.90135  0.92755  0.61112  1.0000
  H   H102      1.0  0.60000  0.93789  0.60131  1.0000
  H   H103      1.0  0.58608  0.56529  0.57076  1.0000
  C   C180      1.0  0.99551  0.85998  0.33761  1.0000
  C   C181      1.0  0.52780  0.84390  0.38988  1.0000
  C   C182      1.0  0.53042  0.80184  0.40842  1.0000
  C   C183      1.0  0.98608  0.70289  0.41441  1.0000
  C   C184      1.0  0.98798  0.66145  0.38782  1.0000
  H   H104      1.0  0.97062  0.64042  0.42105  1.0000
  H   H105      1.0  0.55154  0.86215  0.40906  1.0000
  H   H106      1.0  0.55636  0.79066  0.43755  1.0000
  N   N14       1.0  0.96127  0.71548  0.48668  1.0000
  O   O29       1.0  0.97237  0.69883  0.55815  1.0000
  O   O30       1.0  0.92435  0.70715  0.47336  1.0000
  C   C185      1.0  0.63969  0.00412  0.53753  1.0000
  C   C186      1.0  0.66687  0.53560  0.56354  1.0000
  C   C187      1.0  0.70871  0.53345  0.54405  1.0000
  C   C188      1.0  0.72484  0.99936  0.49861  1.0000
  C   C189      1.0  0.69779  0.96920  0.46672  1.0000
  C   C190      1.0  0.65570  0.97189  0.48499  1.0000
  H   H107      1.0  0.70894  0.94325  0.43759  1.0000
  H   H108      1.0  0.63747  0.94813  0.46592  1.0000
  C   C191      1.0  0.76707  0.99095  0.50916  1.0000
  C   C192      1.0  0.77926  0.96635  0.58247  1.0000
  C   C193      1.0  0.82086  0.96476  0.60659  1.0000
  C   C194      1.0  0.85065  0.98790  0.56113  1.0000
  C   C195      1.0  0.83818  0.01141  0.48707  1.0000
  C   C196      1.0  0.79672  0.51335  0.46061  1.0000
  H   H109      1.0  0.82873  0.94892  0.66287  1.0000
  H   H110      1.0  0.85920  0.52875  0.45377  1.0000
  H   H111      1.0  0.65754  0.55840  0.60544  1.0000
  H   H112      1.0  0.72781  0.55441  0.57274  1.0000
  N   N15       1.0  0.78412  0.53817  0.38836  1.0000
  N   N16       1.0  0.74951  0.94590  0.63476  1.0000
  O   O31       1.0  0.79251  0.57509  0.40162  1.0000
  O   O32       1.0  0.75552  0.90804  0.63632  1.0000
