data_image0
_chemical_formula_structural       C2HCN2C4HC3H2NO2CHC4HC3H2NO2CHC12HCH4N2C5H4CHC5H4CHC2HCN2C4HC3H2NO2CHC4HC3H2NO2CHC12HCH4N2C5H4CHC5H4CHC2HCN2C4HC3H2NO2CHC4HC3H2NO2CHC12HCH4N2C5H4CHC5H4CHC2HCN2C4HC3H2NO2CHC4HC3H2NO2CHC12HCH4N2C5H4CHC5H4CH
_chemical_formula_sum              "C176 H96 N24 O16"
_cell_length_a       39.605
_cell_length_b       39.605
_cell_length_c       15.1164
_cell_angle_alpha    90
_cell_angle_beta     90
_cell_angle_gamma    90

_space_group_name_H-M_alt    "P 1"
_space_group_IT_number       1

loop_
  _space_group_symop_operation_xyz
  'x, y, z'

loop_
  _atom_site_type_symbol
  _atom_site_label
  _atom_site_symmetry_multiplicity
  _atom_site_fract_x
  _atom_site_fract_y
  _atom_site_fract_z
  _atom_site_occupancy
  C   C1        1.0  0.48317  0.00402  0.32010  1.0000
  C   C2        1.0  0.42443  0.01770  0.28004  1.0000
  H   H1        1.0  0.41458  0.06959  0.26551  1.0000
  C   C3        1.0  0.04238  0.99014  0.35651  1.0000
  N   N1        1.0  0.39056  0.01254  0.27924  1.0000
  N   N2        1.0  0.10187  0.47163  0.36198  1.0000
  C   C4        1.0  0.50779  0.33163  0.27437  1.0000
  C   C5        1.0  0.49856  0.25995  0.29751  1.0000
  C   C6        1.0  0.47749  0.27881  0.23855  1.0000
  C   C7        1.0  0.48303  0.31383  0.22618  1.0000
  H   H2        1.0  0.96666  0.32694  0.18646  1.0000
  C   C8        1.0  0.49434  0.22466  0.31462  1.0000
  C   C9        1.0  0.97654  0.16747  0.26807  1.0000
  C   C10       1.0  0.98125  0.20199  0.25039  1.0000
  H   H3        1.0  0.96803  0.15228  0.21802  1.0000
  H   H4        1.0  0.97713  0.20963  0.18689  1.0000
  N   N3        1.0  0.44816  0.26440  0.20010  1.0000
  O   O1        1.0  0.94821  0.26677  0.11710  1.0000
  O   O2        1.0  0.42145  0.27734  0.22960  1.0000
  C   C11       1.0  0.00887  0.36704  0.26858  1.0000
  H   H5        1.0  0.99397  0.37861  0.22252  1.0000
  C   C12       1.0  0.15437  0.49652  0.31663  1.0000
  C   C13       1.0  0.22645  0.49440  0.29951  1.0000
  C   C14       1.0  0.20647  0.51382  0.23951  1.0000
  C   C15       1.0  0.17101  0.51537  0.25056  1.0000
  H   H6        1.0  0.15704  0.02860  0.20524  1.0000
  C   C16       1.0  0.26232  0.49234  0.29481  1.0000
  C   C17       1.0  0.31793  0.01820  0.26595  1.0000
  C   C18       1.0  0.28250  0.01990  0.26640  1.0000
  H   H7        1.0  0.33126  0.03923  0.24783  1.0000
  H   H8        1.0  0.27189  0.04275  0.25215  1.0000
  N   N4        1.0  0.22083  0.52802  0.16200  1.0000
  O   O3        1.0  0.21519  0.05918  0.15596  1.0000
  O   O4        1.0  0.21026  0.51375  0.09303  1.0000
  C   C19       1.0  0.11897  0.99648  0.32032  1.0000
  H   H9        1.0  0.10600  0.01162  0.27719  1.0000
  C   C20       1.0  0.45007  0.49334  0.29589  1.0000
  C   C21       1.0  0.43328  0.05206  0.27614  1.0000
  C   C22       1.0  0.46488  0.06337  0.30672  1.0000
  C   C23       1.0  0.49021  0.03925  0.32849  1.0000
  C   C24       1.0  0.44428  0.45848  0.28493  1.0000
  C   C25       1.0  0.02335  0.04887  0.35184  1.0000
  C   C26       1.0  0.00912  0.47944  0.33495  1.0000
  C   C27       1.0  0.00235  0.44421  0.32575  1.0000
  C   C28       1.0  0.02839  0.42009  0.34145  1.0000
  C   C29       1.0  0.06000  0.43133  0.37227  1.0000
  C   C30       1.0  0.06827  0.46587  0.36956  1.0000
  C   C31       1.0  0.46905  0.43461  0.30454  1.0000
  H   H10       1.0  0.07926  0.41409  0.37804  1.0000
  C   C32       1.0  0.04843  0.02493  0.36838  1.0000
  H   H11       1.0  0.46153  0.41007  0.30492  1.0000
  H   H12       1.0  0.42242  0.44950  0.25854  1.0000
  H   H13       1.0  0.07122  0.03362  0.39029  1.0000
  H   H14       1.0  0.03062  0.07348  0.35410  1.0000
  N   N5        1.0  0.46668  0.09742  0.31508  1.0000
  N   N6        1.0  0.02784  0.38652  0.32258  1.0000
  C   C33       1.0  0.52871  0.31317  0.33208  1.0000
  C   C34       1.0  0.52440  0.27822  0.34218  1.0000
  C   C35       1.0  0.50350  0.21014  0.39727  1.0000
  C   C36       1.0  0.49995  0.17545  0.41448  1.0000
  C   C37       1.0  0.48616  0.15358  0.35032  1.0000
  H   H15       1.0  0.51176  0.22482  0.44845  1.0000
  H   H16       1.0  0.50700  0.16645  0.47528  1.0000
  H   H17       1.0  0.54731  0.32496  0.36754  1.0000
  H   H18       1.0  0.54138  0.26620  0.38217  1.0000
  C   C38       1.0  0.48434  0.11871  0.36720  1.0000
  H   H19       1.0  0.49471  0.10934  0.42414  1.0000
  C   C39       1.0  0.17399  0.47701  0.37505  1.0000
  C   C40       1.0  0.20920  0.47643  0.36721  1.0000
  C   C41       1.0  0.27970  0.46276  0.32217  1.0000
  C   C42       1.0  0.31504  0.46104  0.32302  1.0000
  C   C43       1.0  0.33470  0.48890  0.29597  1.0000
  H   H20       1.0  0.26685  0.44139  0.33960  1.0000
  H   H21       1.0  0.32622  0.43912  0.34394  1.0000
  H   H22       1.0  0.16297  0.46359  0.42526  1.0000
  H   H23       1.0  0.22209  0.46336  0.41478  1.0000
  C   C44       1.0  0.36998  0.48687  0.30250  1.0000
  H   H24       1.0  0.37984  0.46670  0.33548  1.0000
  C   C45       1.0  0.48317  0.50402  0.32010  1.0000
  C   C46       1.0  0.42443  0.51770  0.28004  1.0000
  H   H25       1.0  0.41458  0.56959  0.26551  1.0000
  C   C47       1.0  0.04238  0.49014  0.35651  1.0000
  N   N7        1.0  0.39056  0.51254  0.27924  1.0000
  N   N8        1.0  0.10187  0.97163  0.36198  1.0000
  C   C48       1.0  0.50779  0.83162  0.27437  1.0000
  C   C49       1.0  0.49856  0.75995  0.29751  1.0000
  C   C50       1.0  0.47749  0.77880  0.23855  1.0000
  C   C51       1.0  0.48303  0.81383  0.22618  1.0000
  H   H26       1.0  0.96666  0.82694  0.18646  1.0000
  C   C52       1.0  0.49434  0.72467  0.31462  1.0000
  C   C53       1.0  0.97654  0.66747  0.26807  1.0000
  C   C54       1.0  0.98125  0.70199  0.25039  1.0000
  H   H27       1.0  0.96803  0.65228  0.21802  1.0000
  H   H28       1.0  0.97713  0.70964  0.18689  1.0000
  N   N9        1.0  0.44816  0.76440  0.20010  1.0000
  O   O5        1.0  0.94821  0.76678  0.11710  1.0000
  O   O6        1.0  0.42145  0.77734  0.22960  1.0000
  C   C55       1.0  0.00887  0.86705  0.26858  1.0000
  H   H29       1.0  0.99397  0.87861  0.22252  1.0000
  C   C56       1.0  0.15437  0.99652  0.31663  1.0000
  C   C57       1.0  0.22645  0.99441  0.29951  1.0000
  C   C58       1.0  0.20647  0.01382  0.23951  1.0000
  C   C59       1.0  0.17101  0.01537  0.25056  1.0000
  H   H30       1.0  0.15704  0.52860  0.20524  1.0000
  C   C60       1.0  0.26232  0.99234  0.29481  1.0000
  C   C61       1.0  0.31793  0.51820  0.26595  1.0000
  C   C62       1.0  0.28250  0.51990  0.26640  1.0000
  H   H31       1.0  0.33126  0.53923  0.24783  1.0000
  H   H32       1.0  0.27189  0.54275  0.25215  1.0000
  N   N10       1.0  0.22083  0.02802  0.16200  1.0000
  O   O7        1.0  0.21519  0.55918  0.15596  1.0000
  O   O8        1.0  0.21026  0.01374  0.09303  1.0000
  C   C63       1.0  0.11897  0.49648  0.32032  1.0000
  H   H33       1.0  0.10600  0.51162  0.27719  1.0000
  C   C64       1.0  0.45007  0.99334  0.29589  1.0000
  C   C65       1.0  0.43328  0.55206  0.27614  1.0000
  C   C66       1.0  0.46488  0.56337  0.30672  1.0000
  C   C67       1.0  0.49021  0.53925  0.32849  1.0000
  C   C68       1.0  0.44428  0.95848  0.28493  1.0000
  C   C69       1.0  0.02335  0.54887  0.35184  1.0000
  C   C70       1.0  0.00912  0.97944  0.33495  1.0000
  C   C71       1.0  0.00235  0.94422  0.32575  1.0000
  C   C72       1.0  0.02839  0.92009  0.34145  1.0000
  C   C73       1.0  0.06000  0.93133  0.37227  1.0000
  C   C74       1.0  0.06827  0.96587  0.36956  1.0000
  C   C75       1.0  0.46905  0.93461  0.30454  1.0000
  H   H34       1.0  0.07926  0.91409  0.37804  1.0000
  C   C76       1.0  0.04843  0.52493  0.36838  1.0000
  H   H35       1.0  0.46153  0.91007  0.30492  1.0000
  H   H36       1.0  0.42242  0.94951  0.25854  1.0000
  H   H37       1.0  0.07122  0.53362  0.39029  1.0000
  H   H38       1.0  0.03062  0.57348  0.35410  1.0000
  N   N11       1.0  0.46668  0.59742  0.31508  1.0000
  N   N12       1.0  0.02784  0.88652  0.32258  1.0000
  C   C77       1.0  0.52871  0.81318  0.33208  1.0000
  C   C78       1.0  0.52440  0.77822  0.34218  1.0000
  C   C79       1.0  0.50350  0.71014  0.39727  1.0000
  C   C80       1.0  0.49995  0.67545  0.41448  1.0000
  C   C81       1.0  0.48616  0.65358  0.35032  1.0000
  H   H39       1.0  0.51176  0.72483  0.44845  1.0000
  H   H40       1.0  0.50700  0.66646  0.47528  1.0000
  H   H41       1.0  0.54731  0.82496  0.36754  1.0000
  H   H42       1.0  0.54138  0.76620  0.38217  1.0000
  C   C82       1.0  0.48434  0.61871  0.36720  1.0000
  H   H43       1.0  0.49471  0.60934  0.42414  1.0000
  C   C83       1.0  0.17399  0.97701  0.37505  1.0000
  C   C84       1.0  0.20920  0.97643  0.36721  1.0000
  C   C85       1.0  0.27970  0.96277  0.32217  1.0000
  C   C86       1.0  0.31504  0.96104  0.32302  1.0000
  C   C87       1.0  0.33470  0.98890  0.29597  1.0000
  H   H44       1.0  0.26685  0.94139  0.33960  1.0000
  H   H45       1.0  0.32622  0.93912  0.34394  1.0000
  H   H46       1.0  0.16297  0.96360  0.42526  1.0000
  H   H47       1.0  0.22209  0.96336  0.41478  1.0000
  C   C88       1.0  0.36998  0.98687  0.30250  1.0000
  H   H48       1.0  0.37984  0.96670  0.33548  1.0000
  C   C89       1.0  0.98317  0.00402  0.32010  1.0000
  C   C90       1.0  0.92443  0.01770  0.28004  1.0000
  H   H49       1.0  0.91458  0.06959  0.26551  1.0000
  C   C91       1.0  0.54238  0.99014  0.35651  1.0000
  N   N13       1.0  0.89056  0.01254  0.27924  1.0000
  N   N14       1.0  0.60187  0.47163  0.36198  1.0000
  C   C92       1.0  0.00779  0.33163  0.27437  1.0000
  C   C93       1.0  0.99856  0.25995  0.29751  1.0000
  C   C94       1.0  0.97749  0.27881  0.23855  1.0000
  C   C95       1.0  0.98304  0.31383  0.22618  1.0000
  H   H50       1.0  0.46666  0.32694  0.18646  1.0000
  C   C96       1.0  0.99434  0.22466  0.31462  1.0000
  C   C97       1.0  0.47654  0.16747  0.26807  1.0000
  C   C98       1.0  0.48125  0.20199  0.25039  1.0000
  H   H51       1.0  0.46803  0.15228  0.21802  1.0000
  H   H52       1.0  0.47713  0.20963  0.18689  1.0000
  N   N15       1.0  0.94816  0.26440  0.20010  1.0000
  O   O9        1.0  0.44821  0.26677  0.11710  1.0000
  O   O10       1.0  0.92145  0.27734  0.22960  1.0000
  C   C99       1.0  0.50887  0.36704  0.26858  1.0000
  H   H53       1.0  0.49397  0.37861  0.22252  1.0000
  C   C100      1.0  0.65437  0.49652  0.31663  1.0000
  C   C101      1.0  0.72645  0.49440  0.29951  1.0000
  C   C102      1.0  0.70647  0.51382  0.23951  1.0000
  C   C103      1.0  0.67101  0.51537  0.25056  1.0000
  H   H54       1.0  0.65704  0.02860  0.20524  1.0000
  C   C104      1.0  0.76233  0.49234  0.29481  1.0000
  C   C105      1.0  0.81793  0.01820  0.26595  1.0000
  C   C106      1.0  0.78250  0.01990  0.26640  1.0000
  H   H55       1.0  0.83126  0.03923  0.24783  1.0000
  H   H56       1.0  0.77189  0.04275  0.25215  1.0000
  N   N16       1.0  0.72083  0.52802  0.16200  1.0000
  O   O11       1.0  0.71518  0.05918  0.15596  1.0000
  O   O12       1.0  0.71026  0.51375  0.09303  1.0000
  C   C107      1.0  0.61897  0.99648  0.32032  1.0000
  H   H57       1.0  0.60600  0.01162  0.27719  1.0000
  C   C108      1.0  0.95007  0.49334  0.29589  1.0000
  C   C109      1.0  0.93328  0.05206  0.27614  1.0000
  C   C110      1.0  0.96488  0.06337  0.30672  1.0000
  C   C111      1.0  0.99021  0.03925  0.32849  1.0000
  C   C112      1.0  0.94428  0.45848  0.28493  1.0000
  C   C113      1.0  0.52334  0.04887  0.35184  1.0000
  C   C114      1.0  0.50912  0.47944  0.33495  1.0000
  C   C115      1.0  0.50235  0.44421  0.32575  1.0000
  C   C116      1.0  0.52839  0.42009  0.34145  1.0000
  C   C117      1.0  0.56000  0.43133  0.37227  1.0000
  C   C118      1.0  0.56827  0.46587  0.36956  1.0000
  C   C119      1.0  0.96905  0.43461  0.30454  1.0000
  H   H58       1.0  0.57927  0.41409  0.37804  1.0000
  C   C120      1.0  0.54843  0.02493  0.36838  1.0000
  H   H59       1.0  0.96153  0.41007  0.30492  1.0000
  H   H60       1.0  0.92242  0.44950  0.25854  1.0000
  H   H61       1.0  0.57122  0.03362  0.39029  1.0000
  H   H62       1.0  0.53062  0.07348  0.35410  1.0000
  N   N17       1.0  0.96668  0.09742  0.31508  1.0000
  N   N18       1.0  0.52785  0.38652  0.32258  1.0000
  C   C121      1.0  0.02871  0.31317  0.33208  1.0000
  C   C122      1.0  0.02440  0.27822  0.34218  1.0000
  C   C123      1.0  0.00350  0.21014  0.39727  1.0000
  C   C124      1.0  0.99995  0.17545  0.41448  1.0000
  C   C125      1.0  0.98616  0.15358  0.35032  1.0000
  H   H63       1.0  0.01176  0.22482  0.44845  1.0000
  H   H64       1.0  0.00700  0.16645  0.47528  1.0000
  H   H65       1.0  0.04731  0.32496  0.36754  1.0000
  H   H66       1.0  0.04138  0.26620  0.38217  1.0000
  C   C126      1.0  0.98434  0.11871  0.36720  1.0000
  H   H67       1.0  0.99471  0.10934  0.42414  1.0000
  C   C127      1.0  0.67398  0.47701  0.37505  1.0000
  C   C128      1.0  0.70920  0.47643  0.36721  1.0000
  C   C129      1.0  0.77970  0.46276  0.32217  1.0000
  C   C130      1.0  0.81504  0.46104  0.32302  1.0000
  C   C131      1.0  0.83469  0.48890  0.29597  1.0000
  H   H68       1.0  0.76685  0.44139  0.33960  1.0000
  H   H69       1.0  0.82622  0.43912  0.34394  1.0000
  H   H70       1.0  0.66297  0.46359  0.42526  1.0000
  H   H71       1.0  0.72210  0.46336  0.41478  1.0000
  C   C132      1.0  0.86998  0.48687  0.30250  1.0000
  H   H72       1.0  0.87984  0.46670  0.33548  1.0000
  C   C133      1.0  0.98317  0.50402  0.32010  1.0000
  C   C134      1.0  0.92443  0.51770  0.28004  1.0000
  H   H73       1.0  0.91458  0.56959  0.26551  1.0000
  C   C135      1.0  0.54238  0.49014  0.35651  1.0000
  N   N19       1.0  0.89056  0.51254  0.27924  1.0000
  N   N20       1.0  0.60187  0.97163  0.36198  1.0000
  C   C136      1.0  0.00779  0.83162  0.27437  1.0000
  C   C137      1.0  0.99856  0.75995  0.29751  1.0000
  C   C138      1.0  0.97749  0.77880  0.23855  1.0000
  C   C139      1.0  0.98304  0.81383  0.22618  1.0000
  H   H74       1.0  0.46666  0.82694  0.18646  1.0000
  C   C140      1.0  0.99434  0.72467  0.31462  1.0000
  C   C141      1.0  0.47654  0.66747  0.26807  1.0000
  C   C142      1.0  0.48125  0.70199  0.25039  1.0000
  H   H75       1.0  0.46803  0.65228  0.21802  1.0000
  H   H76       1.0  0.47713  0.70964  0.18689  1.0000
  N   N21       1.0  0.94816  0.76440  0.20010  1.0000
  O   O13       1.0  0.44821  0.76678  0.11710  1.0000
  O   O14       1.0  0.92145  0.77734  0.22960  1.0000
  C   C143      1.0  0.50887  0.86705  0.26858  1.0000
  H   H77       1.0  0.49397  0.87861  0.22252  1.0000
  C   C144      1.0  0.65437  0.99652  0.31663  1.0000
  C   C145      1.0  0.72645  0.99441  0.29951  1.0000
  C   C146      1.0  0.70647  0.01382  0.23951  1.0000
  C   C147      1.0  0.67101  0.01537  0.25056  1.0000
  H   H78       1.0  0.65704  0.52860  0.20524  1.0000
  C   C148      1.0  0.76233  0.99234  0.29481  1.0000
  C   C149      1.0  0.81793  0.51820  0.26595  1.0000
  C   C150      1.0  0.78250  0.51990  0.26640  1.0000
  H   H79       1.0  0.83126  0.53923  0.24783  1.0000
  H   H80       1.0  0.77189  0.54275  0.25215  1.0000
  N   N22       1.0  0.72083  0.02802  0.16200  1.0000
  O   O15       1.0  0.71518  0.55918  0.15596  1.0000
  O   O16       1.0  0.71026  0.01374  0.09303  1.0000
  C   C151      1.0  0.61897  0.49648  0.32032  1.0000
  H   H81       1.0  0.60600  0.51162  0.27719  1.0000
  C   C152      1.0  0.95007  0.99334  0.29589  1.0000
  C   C153      1.0  0.93328  0.55206  0.27614  1.0000
  C   C154      1.0  0.96488  0.56337  0.30672  1.0000
  C   C155      1.0  0.99021  0.53925  0.32849  1.0000
  C   C156      1.0  0.94428  0.95848  0.28493  1.0000
  C   C157      1.0  0.52334  0.54887  0.35184  1.0000
  C   C158      1.0  0.50912  0.97944  0.33495  1.0000
  C   C159      1.0  0.50235  0.94422  0.32575  1.0000
  C   C160      1.0  0.52839  0.92009  0.34145  1.0000
  C   C161      1.0  0.56000  0.93133  0.37227  1.0000
  C   C162      1.0  0.56827  0.96587  0.36956  1.0000
  C   C163      1.0  0.96905  0.93461  0.30454  1.0000
  H   H82       1.0  0.57927  0.91409  0.37804  1.0000
  C   C164      1.0  0.54843  0.52493  0.36838  1.0000
  H   H83       1.0  0.96153  0.91007  0.30492  1.0000
  H   H84       1.0  0.92242  0.94951  0.25854  1.0000
  H   H85       1.0  0.57122  0.53362  0.39029  1.0000
  H   H86       1.0  0.53062  0.57348  0.35410  1.0000
  N   N23       1.0  0.96668  0.59742  0.31508  1.0000
  N   N24       1.0  0.52785  0.88652  0.32258  1.0000
  C   C165      1.0  0.02871  0.81318  0.33208  1.0000
  C   C166      1.0  0.02440  0.77822  0.34218  1.0000
  C   C167      1.0  0.00350  0.71014  0.39727  1.0000
  C   C168      1.0  0.99995  0.67545  0.41448  1.0000
  C   C169      1.0  0.98616  0.65358  0.35032  1.0000
  H   H87       1.0  0.01176  0.72483  0.44845  1.0000
  H   H88       1.0  0.00700  0.66646  0.47528  1.0000
  H   H89       1.0  0.04731  0.82496  0.36754  1.0000
  H   H90       1.0  0.04138  0.76620  0.38217  1.0000
  C   C170      1.0  0.98434  0.61871  0.36720  1.0000
  H   H91       1.0  0.99471  0.60934  0.42414  1.0000
  C   C171      1.0  0.67398  0.97701  0.37505  1.0000
  C   C172      1.0  0.70920  0.97643  0.36721  1.0000
  C   C173      1.0  0.77970  0.96277  0.32217  1.0000
  C   C174      1.0  0.81504  0.96104  0.32302  1.0000
  C   C175      1.0  0.83469  0.98890  0.29597  1.0000
  H   H92       1.0  0.76685  0.94139  0.33960  1.0000
  H   H93       1.0  0.82622  0.93912  0.34394  1.0000
  H   H94       1.0  0.66297  0.96360  0.42526  1.0000
  H   H95       1.0  0.72210  0.96336  0.41478  1.0000
  C   C176      1.0  0.86998  0.98687  0.30250  1.0000
  H   H96       1.0  0.87984  0.96670  0.33548  1.0000
