data_image0
_chemical_formula_structural       C3H2NHC3H2NHC3H2NHCNCNCNC18H12C3O3CNCNCNC18H12C3O3C3HNO2NHC3HNO2NHC3HNO2NH
_chemical_formula_sum              "C66 H39 N15 O12"
_cell_length_a       36.7518
_cell_length_b       36.7514
_cell_length_c       15.0931
_cell_angle_alpha    90
_cell_angle_beta     90
_cell_angle_gamma    120

_space_group_name_H-M_alt    "P 1"
_space_group_IT_number       1

loop_
  _space_group_symop_operation_xyz
  'x, y, z'

loop_
  _atom_site_type_symbol
  _atom_site_label
  _atom_site_symmetry_multiplicity
  _atom_site_fract_x
  _atom_site_fract_y
  _atom_site_fract_z
  _atom_site_occupancy
  C   C1        1.0  0.46971  0.51489  0.31802  1.0000
  C   C2        1.0  0.51171  0.48545  0.26132  1.0000
  C   C3        1.0  0.48724  0.50432  0.24631  1.0000
  H   H1        1.0  0.52267  0.47667  0.20792  1.0000
  H   H2        1.0  0.48158  0.50960  0.18257  1.0000
  N   N1        1.0  0.44798  0.53532  0.30224  1.0000
  H   H3        1.0  0.45896  0.55661  0.25569  1.0000
  C   C4        1.0  0.47739  0.95327  0.31805  1.0000
  C   C5        1.0  0.50684  0.02470  0.26129  1.0000
  C   C6        1.0  0.48796  0.98135  0.24631  1.0000
  H   H4        1.0  0.51562  0.04443  0.20787  1.0000
  H   H5        1.0  0.48267  0.97040  0.18259  1.0000
  N   N2        1.0  0.45695  0.91110  0.30230  1.0000
  H   H6        1.0  0.43567  0.90079  0.25575  1.0000
  C   C7        1.0  0.03901  0.52258  0.31809  1.0000
  C   C8        1.0  0.96759  0.48062  0.26128  1.0000
  C   C9        1.0  0.01094  0.50508  0.24633  1.0000
  H   H7        1.0  0.94787  0.46967  0.20784  1.0000
  H   H8        1.0  0.02190  0.51074  0.18261  1.0000
  N   N3        1.0  0.08119  0.54429  0.30237  1.0000
  H   H9        1.0  0.09149  0.53332  0.25579  1.0000
  C   C10       1.0  0.28594  0.64773  0.31535  1.0000
  N   N4        1.0  0.30256  0.62200  0.31565  1.0000
  C   C11       1.0  0.34455  0.63665  0.31534  1.0000
  N   N5        1.0  0.37029  0.67900  0.31567  1.0000
  C   C12       1.0  0.35563  0.70634  0.31535  1.0000
  N   N6        1.0  0.31328  0.68973  0.31568  1.0000
  C   C13       1.0  0.36095  0.60893  0.31926  1.0000
  C   C14       1.0  0.33417  0.56477  0.32374  1.0000
  C   C15       1.0  0.35065  0.53766  0.33134  1.0000
  C   C16       1.0  0.39452  0.55383  0.33315  1.0000
  C   C17       1.0  0.42134  0.59784  0.32874  1.0000
  C   C18       1.0  0.40486  0.62487  0.32181  1.0000
  C   C19       1.0  0.24182  0.63133  0.31929  1.0000
  C   C20       1.0  0.21385  0.58742  0.32184  1.0000
  C   C21       1.0  0.17034  0.57093  0.32877  1.0000
  C   C22       1.0  0.15316  0.59776  0.33325  1.0000
  C   C23       1.0  0.18085  0.64162  0.33145  1.0000
  C   C24       1.0  0.22445  0.65811  0.32381  1.0000
  C   C25       1.0  0.38336  0.75047  0.31933  1.0000
  C   C26       1.0  0.36741  0.77843  0.32189  1.0000
  C   C27       1.0  0.39444  0.82195  0.32879  1.0000
  C   C28       1.0  0.43844  0.83913  0.33323  1.0000
  C   C29       1.0  0.45462  0.81144  0.33144  1.0000
  C   C30       1.0  0.42751  0.76784  0.32379  1.0000
  H   H10       1.0  0.15150  0.53903  0.33310  1.0000
  H   H11       1.0  0.22472  0.56668  0.32000  1.0000
  H   H12       1.0  0.16952  0.66198  0.33478  1.0000
  H   H13       1.0  0.24333  0.69006  0.32274  1.0000
  H   H14       1.0  0.33580  0.76757  0.32000  1.0000
  H   H15       1.0  0.38138  0.84080  0.33306  1.0000
  H   H16       1.0  0.44057  0.74896  0.32274  1.0000
  H   H17       1.0  0.48630  0.82277  0.33473  1.0000
  H   H18       1.0  0.42561  0.65648  0.31997  1.0000
  H   H19       1.0  0.45325  0.61090  0.33300  1.0000
  H   H20       1.0  0.33030  0.50598  0.33463  1.0000
  H   H21       1.0  0.30222  0.55171  0.32266  1.0000
  C   C31       1.0  0.10925  0.58069  0.34315  1.0000
  C   C32       1.0  0.46529  0.88304  0.34309  1.0000
  C   C33       1.0  0.41158  0.52698  0.34301  1.0000
  O   O1        1.0  0.39033  0.49207  0.39357  1.0000
  O   O2        1.0  0.50020  0.89670  0.39366  1.0000
  O   O3        1.0  0.09559  0.60194  0.39372  1.0000
  C   C34       1.0  0.70480  0.34605  0.32825  1.0000
  N   N7        1.0  0.68824  0.37183  0.32824  1.0000
  C   C35       1.0  0.64625  0.35721  0.32834  1.0000
  N   N8        1.0  0.62047  0.31487  0.32828  1.0000
  C   C36       1.0  0.63509  0.28749  0.32830  1.0000
  N   N9        1.0  0.67743  0.30406  0.32820  1.0000
  C   C37       1.0  0.62989  0.38500  0.32741  1.0000
  C   C38       1.0  0.65666  0.42918  0.33038  1.0000
  C   C39       1.0  0.64021  0.45646  0.32857  1.0000
  C   C40       1.0  0.59638  0.44036  0.32514  1.0000
  C   C41       1.0  0.56959  0.39634  0.32117  1.0000
  C   C42       1.0  0.58605  0.36917  0.32237  1.0000
  C   C43       1.0  0.74895  0.36241  0.32724  1.0000
  C   C44       1.0  0.77696  0.40626  0.32215  1.0000
  C   C45       1.0  0.82058  0.42271  0.32087  1.0000
  C   C46       1.0  0.83782  0.39593  0.32490  1.0000
  C   C47       1.0  0.81010  0.35210  0.32840  1.0000
  C   C48       1.0  0.76636  0.33564  0.33023  1.0000
  C   C49       1.0  0.60730  0.24335  0.32734  1.0000
  C   C50       1.0  0.62313  0.21533  0.32229  1.0000
  C   C51       1.0  0.59596  0.17171  0.32104  1.0000
  C   C52       1.0  0.55194  0.15448  0.32504  1.0000
  C   C53       1.0  0.53584  0.18220  0.32849  1.0000
  C   C54       1.0  0.56311  0.22593  0.33031  1.0000
  H   H22       1.0  0.83953  0.45454  0.31495  1.0000
  H   H23       1.0  0.76608  0.42696  0.31854  1.0000
  H   H24       1.0  0.82146  0.33176  0.33111  1.0000
  H   H25       1.0  0.74746  0.30374  0.33369  1.0000
  H   H26       1.0  0.65471  0.22621  0.31864  1.0000
  H   H27       1.0  0.60884  0.15276  0.31507  1.0000
  H   H28       1.0  0.55011  0.24484  0.33373  1.0000
  H   H29       1.0  0.50414  0.17084  0.33116  1.0000
  H   H30       1.0  0.56534  0.33759  0.31874  1.0000
  H   H31       1.0  0.53776  0.38346  0.31518  1.0000
  H   H32       1.0  0.66055  0.48816  0.33122  1.0000
  H   H33       1.0  0.68857  0.44218  0.33378  1.0000
  C   C55       1.0  0.88191  0.41289  0.32169  1.0000
  C   C56       1.0  0.52480  0.11038  0.32176  1.0000
  C   C57       1.0  0.57943  0.46750  0.32185  1.0000
  O   O4        1.0  0.60127  0.50439  0.27776  1.0000
  O   O5        1.0  0.48791  0.09533  0.27769  1.0000
  O   O6        1.0  0.89697  0.39105  0.27764  1.0000
  C   C58       1.0  0.47849  0.50749  0.40521  1.0000
  C   C59       1.0  0.50337  0.48875  0.42139  1.0000
  C   C60       1.0  0.52043  0.47793  0.34852  1.0000
  H   H34       1.0  0.46759  0.51675  0.45794  1.0000
  N   N10       1.0  0.51287  0.48197  0.50860  1.0000
  O   O7        1.0  0.48008  0.45798  0.55112  1.0000
  O   O8        1.0  0.53279  0.51596  0.55038  1.0000
  N   N11       1.0  0.54223  0.45732  0.36136  1.0000
  H   H35       1.0  0.52998  0.43373  0.40259  1.0000
  C   C61       1.0  0.48480  0.96946  0.40523  1.0000
  C   C62       1.0  0.50356  0.01309  0.42137  1.0000
  C   C63       1.0  0.51437  0.04095  0.34848  1.0000
  H   H36       1.0  0.47555  0.94932  0.45797  1.0000
  N   N12       1.0  0.51035  0.02938  0.50856  1.0000
  O   O9        1.0  0.53434  0.02059  0.55109  1.0000
  O   O10       1.0  0.47636  0.01533  0.55036  1.0000
  N   N13       1.0  0.53499  0.08337  0.36127  1.0000
  H   H37       1.0  0.55858  0.09471  0.40250  1.0000
  C   C64       1.0  0.02281  0.51379  0.40525  1.0000
  C   C65       1.0  0.97918  0.48893  0.42136  1.0000
  C   C66       1.0  0.95133  0.47189  0.34845  1.0000
  H   H38       1.0  0.04295  0.52468  0.45801  1.0000
  N   N14       1.0  0.96287  0.47942  0.50855  1.0000
  O   O11       1.0  0.97167  0.51220  0.55109  1.0000
  O   O12       1.0  0.97692  0.45947  0.55034  1.0000
  N   N15       1.0  0.90891  0.45009  0.36121  1.0000
  H   H39       1.0  0.89756  0.46233  0.40242  1.0000
