data_image0
_chemical_formula_structural       C2HCHC2H2C2H2CHC24H15C24H15C4H2C4H2C2H
_chemical_formula_sum              "C66 H42"
_cell_length_a       30.0416
_cell_length_b       30.0417
_cell_length_c       14.9211
_cell_angle_alpha    90
_cell_angle_beta     90
_cell_angle_gamma    120

_space_group_name_H-M_alt    "P 1"
_space_group_IT_number       1

loop_
  _space_group_symop_operation_xyz
  'x, y, z'

loop_
  _atom_site_type_symbol
  _atom_site_label
  _atom_site_symmetry_multiplicity
  _atom_site_fract_x
  _atom_site_fract_y
  _atom_site_fract_z
  _atom_site_occupancy
  C   C1        1.0  0.03101  0.51617  0.25747  1.0000
  C   C2        1.0  0.03103  0.51618  0.42071  1.0000
  H   H1        1.0  0.05015  0.52574  0.19751  1.0000
  C   C3        1.0  0.05852  0.52992  0.33908  1.0000
  H   H2        1.0  0.05019  0.52575  0.48065  1.0000
  C   C4        1.0  0.49044  0.51617  0.25747  1.0000
  C   C5        1.0  0.51750  0.48911  0.25748  1.0000
  H   H3        1.0  0.48087  0.52574  0.19751  1.0000
  H   H4        1.0  0.52707  0.47953  0.19754  1.0000
  C   C6        1.0  0.49044  0.97559  0.25747  1.0000
  C   C7        1.0  0.51750  0.02971  0.25748  1.0000
  H   H5        1.0  0.48087  0.95645  0.19752  1.0000
  H   H6        1.0  0.52707  0.04886  0.19754  1.0000
  C   C8        1.0  0.97690  0.48911  0.25748  1.0000
  H   H7        1.0  0.95774  0.47953  0.19754  1.0000
  C   C9        1.0  0.28116  0.64124  0.33858  1.0000
  C   C10       1.0  0.31080  0.61632  0.33857  1.0000
  C   C11       1.0  0.36536  0.64124  0.33858  1.0000
  C   C12       1.0  0.39028  0.69580  0.33857  1.0000
  C   C13       1.0  0.36536  0.72544  0.33858  1.0000
  C   C14       1.0  0.31081  0.69580  0.33857  1.0000
  C   C15       1.0  0.39369  0.61291  0.33867  1.0000
  C   C16       1.0  0.36866  0.55805  0.33873  1.0000
  C   C17       1.0  0.39549  0.53076  0.33890  1.0000
  C   C18       1.0  0.44950  0.55710  0.33902  1.0000
  C   C19       1.0  0.47585  0.61112  0.33890  1.0000
  C   C20       1.0  0.44856  0.63794  0.33873  1.0000
  C   C21       1.0  0.22451  0.61291  0.33867  1.0000
  C   C22       1.0  0.19467  0.55805  0.33873  1.0000
  C   C23       1.0  0.14056  0.53076  0.33890  1.0000
  C   C24       1.0  0.11289  0.55710  0.33902  1.0000
  C   C25       1.0  0.14056  0.61112  0.33890  1.0000
  C   C26       1.0  0.19467  0.63794  0.33873  1.0000
  C   C27       1.0  0.39369  0.78209  0.33867  1.0000
  C   C28       1.0  0.36866  0.81193  0.33873  1.0000
  C   C29       1.0  0.39549  0.86605  0.33890  1.0000
  C   C30       1.0  0.44950  0.89372  0.33902  1.0000
  C   C31       1.0  0.47584  0.86605  0.33890  1.0000
  C   C32       1.0  0.44856  0.81193  0.33873  1.0000
  H   H8        1.0  0.12146  0.49139  0.33893  1.0000
  H   H9        1.0  0.21110  0.53560  0.33865  1.0000
  H   H10       1.0  0.12146  0.63139  0.33893  1.0000
  H   H11       1.0  0.21110  0.67683  0.33865  1.0000
  H   H12       1.0  0.32978  0.79550  0.33865  1.0000
  H   H13       1.0  0.37522  0.88515  0.33893  1.0000
  H   H14       1.0  0.47101  0.79550  0.33865  1.0000
  H   H15       1.0  0.51522  0.88515  0.33893  1.0000
  H   H16       1.0  0.47101  0.67683  0.33865  1.0000
  H   H17       1.0  0.51522  0.63139  0.33893  1.0000
  H   H18       1.0  0.37522  0.49139  0.33893  1.0000
  H   H19       1.0  0.32978  0.53560  0.33865  1.0000
  H   H20       1.0  0.29154  0.57780  0.33859  1.0000
  H   H21       1.0  0.29154  0.71506  0.33859  1.0000
  H   H22       1.0  0.42880  0.71506  0.33859  1.0000
  C   C33       1.0  0.72677  0.36404  0.33858  1.0000
  C   C34       1.0  0.69712  0.38896  0.33857  1.0000
  C   C35       1.0  0.64256  0.36404  0.33858  1.0000
  C   C36       1.0  0.61765  0.30948  0.33857  1.0000
  C   C37       1.0  0.64256  0.27984  0.33858  1.0000
  C   C38       1.0  0.69712  0.30948  0.33857  1.0000
  C   C39       1.0  0.61424  0.39237  0.33869  1.0000
  C   C40       1.0  0.63927  0.44724  0.33876  1.0000
  C   C41       1.0  0.61244  0.47452  0.33895  1.0000
  C   C42       1.0  0.55843  0.44818  0.33908  1.0000
  C   C43       1.0  0.53208  0.39417  0.33895  1.0000
  C   C44       1.0  0.55937  0.36734  0.33876  1.0000
  C   C45       1.0  0.78342  0.39237  0.33869  1.0000
  C   C46       1.0  0.81326  0.44724  0.33876  1.0000
  C   C47       1.0  0.86737  0.47452  0.33895  1.0000
  C   C48       1.0  0.89504  0.44818  0.33909  1.0000
  C   C49       1.0  0.86737  0.39417  0.33895  1.0000
  C   C50       1.0  0.81326  0.36734  0.33876  1.0000
  C   C51       1.0  0.61424  0.22319  0.33869  1.0000
  C   C52       1.0  0.63926  0.19335  0.33876  1.0000
  C   C53       1.0  0.61244  0.13924  0.33895  1.0000
  C   C54       1.0  0.55843  0.11157  0.33909  1.0000
  C   C55       1.0  0.53208  0.13924  0.33895  1.0000
  C   C56       1.0  0.55937  0.19335  0.33876  1.0000
  H   H23       1.0  0.88647  0.51389  0.33897  1.0000
  H   H24       1.0  0.79683  0.46969  0.33867  1.0000
  H   H25       1.0  0.88647  0.37389  0.33897  1.0000
  H   H26       1.0  0.79682  0.32846  0.33867  1.0000
  H   H27       1.0  0.67815  0.20978  0.33867  1.0000
  H   H28       1.0  0.63271  0.12014  0.33897  1.0000
  H   H29       1.0  0.53692  0.20978  0.33867  1.0000
  H   H30       1.0  0.49271  0.12014  0.33897  1.0000
  H   H31       1.0  0.53692  0.32846  0.33867  1.0000
  H   H32       1.0  0.49271  0.37389  0.33897  1.0000
  H   H33       1.0  0.63271  0.51389  0.33897  1.0000
  H   H34       1.0  0.67815  0.46969  0.33867  1.0000
  H   H35       1.0  0.71638  0.42748  0.33859  1.0000
  H   H36       1.0  0.71638  0.29022  0.33859  1.0000
  H   H37       1.0  0.57913  0.29022  0.33859  1.0000
  C   C57       1.0  0.51749  0.48912  0.42073  1.0000
  C   C58       1.0  0.49043  0.51618  0.42071  1.0000
  C   C59       1.0  0.47668  0.52992  0.33908  1.0000
  C   C60       1.0  0.53124  0.47536  0.33912  1.0000
  H   H38       1.0  0.48085  0.52575  0.48065  1.0000
  H   H39       1.0  0.52706  0.47954  0.48068  1.0000
  C   C61       1.0  0.51749  0.02969  0.42073  1.0000
  C   C62       1.0  0.49043  0.97558  0.42072  1.0000
  C   C63       1.0  0.47668  0.94808  0.33908  1.0000
  C   C64       1.0  0.53124  0.05720  0.33912  1.0000
  H   H40       1.0  0.48085  0.95642  0.48065  1.0000
  H   H41       1.0  0.52706  0.04884  0.48068  1.0000
  C   C65       1.0  0.97691  0.48912  0.42073  1.0000
  C   C66       1.0  0.94940  0.47536  0.33912  1.0000
  H   H42       1.0  0.95777  0.47954  0.48068  1.0000
