data_image0
_chemical_formula_structural       C3HNO2C3HNO2C3HNO2C3HNO2C3HNO2C3HNO2C3HNO2C3HNO2C3HNO2C3HNO2C3HNO2C3HNO2C3HNO2C3HNO2C3HNO2C3HNO2C3HNO2C3HNO2C6H3C6H3C6H3C6H3C6H3C6H3C6H3C6H3C6H3C6H3C6H3C6H3C3HNO2C3HNO2C3HNO2C3HNO2C3HNO2C3HNO2C3HNO2C3HNO2C3HNO2C3HNO2C3HNO2C3HNO2C3HNO2C3HNO2C3HNO2C3HNO2C3HNO2C3HNO2
_chemical_formula_sum              "C180 H72 N36 O72"
_cell_length_a       34.3695
_cell_length_b       34.2121
_cell_length_c       14.8125
_cell_angle_alpha    90
_cell_angle_beta     90
_cell_angle_gamma    90.2672

_space_group_name_H-M_alt    "P 1"
_space_group_IT_number       1

loop_
  _space_group_symop_operation_xyz
  'x, y, z'

loop_
  _atom_site_type_symbol
  _atom_site_label
  _atom_site_symmetry_multiplicity
  _atom_site_fract_x
  _atom_site_fract_y
  _atom_site_fract_z
  _atom_site_occupancy
  C   C1        1.0  0.97457  0.53419  0.34439  1.0000
  C   C2        1.0  0.98976  0.51948  0.26219  1.0000
  C   C3        1.0  0.01913  0.49049  0.26437  1.0000
  H   H1        1.0  0.02984  0.47999  0.20465  1.0000
  N   N1        1.0  0.97524  0.53412  0.17946  1.0000
  O   O1        1.0  0.00174  0.55009  0.13390  1.0000
  O   O2        1.0  0.95996  0.50742  0.13303  1.0000
  C   C4        1.0  0.47425  0.97379  0.34435  1.0000
  C   C5        1.0  0.48940  0.98865  0.26212  1.0000
  C   C6        1.0  0.51884  0.01783  0.26430  1.0000
  H   H2        1.0  0.52955  0.02842  0.20458  1.0000
  N   N2        1.0  0.47469  0.97403  0.17940  1.0000
  O   O3        1.0  0.45945  0.00072  0.13331  1.0000
  O   O4        1.0  0.50106  0.95827  0.13349  1.0000
  C   C7        1.0  0.05337  0.25496  0.34529  1.0000
  C   C8        1.0  0.05824  0.27546  0.26287  1.0000
  C   C9        1.0  0.06682  0.31602  0.26482  1.0000
  H   H3        1.0  0.07069  0.33056  0.20506  1.0000
  N   N3        1.0  0.05455  0.25493  0.18031  1.0000
  O   O5        1.0  0.02739  0.26848  0.13312  1.0000
  O   O6        1.0  0.08553  0.25638  0.13539  1.0000
  C   C10       1.0  0.95452  0.75462  0.34590  1.0000
  C   C11       1.0  0.94956  0.73402  0.26365  1.0000
  C   C12       1.0  0.94075  0.69351  0.26592  1.0000
  H   H4        1.0  0.93692  0.67888  0.20627  1.0000
  N   N4        1.0  0.95340  0.75441  0.18094  1.0000
  O   O7        1.0  0.98049  0.74063  0.13389  1.0000
  O   O8        1.0  0.92242  0.75310  0.13599  1.0000
  C   C13       1.0  0.75350  0.05344  0.34542  1.0000
  C   C14       1.0  0.73308  0.05829  0.26303  1.0000
  C   C15       1.0  0.69277  0.06683  0.26499  1.0000
  H   H5        1.0  0.67831  0.07062  0.20523  1.0000
  N   N5        1.0  0.75348  0.05459  0.18046  1.0000
  O   O9        1.0  0.73979  0.02724  0.13337  1.0000
  O   O10       1.0  0.75225  0.08568  0.13544  1.0000
  C   C16       1.0  0.25462  0.95541  0.34584  1.0000
  C   C17       1.0  0.27501  0.94992  0.26364  1.0000
  C   C18       1.0  0.31515  0.94058  0.26593  1.0000
  H   H6        1.0  0.32960  0.93644  0.20629  1.0000
  N   N6        1.0  0.25476  0.95377  0.18091  1.0000
  O   O11       1.0  0.26906  0.98065  0.13335  1.0000
  O   O12       1.0  0.25537  0.92249  0.13649  1.0000
  C   C19       1.0  0.43593  0.83470  0.34414  1.0000
  C   C20       1.0  0.44161  0.81434  0.26184  1.0000
  C   C21       1.0  0.45091  0.77402  0.26393  1.0000
  H   H7        1.0  0.45474  0.75948  0.20421  1.0000
  N   N7        1.0  0.43755  0.83467  0.17916  1.0000
  O   O13       1.0  0.46860  0.83410  0.13443  1.0000
  O   O14       1.0  0.41074  0.82024  0.13187  1.0000
  C   C22       1.0  0.57145  0.17175  0.34308  1.0000
  C   C23       1.0  0.56623  0.19231  0.26089  1.0000
  C   C24       1.0  0.55727  0.23270  0.26326  1.0000
  H   H8        1.0  0.55372  0.24739  0.20364  1.0000
  N   N8        1.0  0.57036  0.17211  0.17807  1.0000
  O   O15       1.0  0.53944  0.17304  0.13288  1.0000
  O   O16       1.0  0.59742  0.18640  0.13134  1.0000
  C   C25       1.0  0.83579  0.57122  0.34418  1.0000
  C   C26       1.0  0.81535  0.56605  0.26186  1.0000
  C   C27       1.0  0.77499  0.55728  0.26391  1.0000
  H   H9        1.0  0.76042  0.55375  0.20416  1.0000
  N   N9        1.0  0.83564  0.57012  0.17920  1.0000
  O   O17       1.0  0.83436  0.53907  0.13397  1.0000
  O   O18       1.0  0.82186  0.59739  0.13238  1.0000
  C   C28       1.0  0.17229  0.43751  0.34294  1.0000
  C   C29       1.0  0.19307  0.44159  0.26077  1.0000
  C   C30       1.0  0.23357  0.44960  0.26315  1.0000
  H   H10       1.0  0.24837  0.45245  0.20352  1.0000
  N   N10       1.0  0.17295  0.43733  0.17792  1.0000
  O   O19       1.0  0.17501  0.46801  0.13152  1.0000
  O   O20       1.0  0.18633  0.40946  0.13240  1.0000
  C   C31       1.0  0.09850  0.11798  0.34690  1.0000
  C   C32       1.0  0.11093  0.10079  0.26478  1.0000
  C   C33       1.0  0.13467  0.06707  0.26738  1.0000
  H   H11       1.0  0.14169  0.05361  0.20786  1.0000
  N   N11       1.0  0.09765  0.11645  0.18187  1.0000
  O   O21       1.0  0.12563  0.12715  0.13308  1.0000
  O   O22       1.0  0.07745  0.09203  0.13885  1.0000
  C   C34       1.0  0.90986  0.89169  0.34694  1.0000
  C   C35       1.0  0.89758  0.90896  0.26480  1.0000
  C   C36       1.0  0.87394  0.94274  0.26744  1.0000
  H   H12       1.0  0.86689  0.95622  0.20796  1.0000
  N   N12       1.0  0.91090  0.89334  0.18189  1.0000
  O   O23       1.0  0.88293  0.88280  0.13285  1.0000
  O   O24       1.0  0.93122  0.91774  0.13915  1.0000
  C   C37       1.0  0.89016  0.09946  0.34650  1.0000
  C   C38       1.0  0.90776  0.11135  0.26436  1.0000
  C   C39       1.0  0.94209  0.13439  0.26693  1.0000
  H   H13       1.0  0.95571  0.14119  0.20746  1.0000
  N   N13       1.0  0.89183  0.09824  0.18148  1.0000
  O   O25       1.0  0.88213  0.12651  0.13242  1.0000
  O   O26       1.0  0.91552  0.07734  0.13875  1.0000
  C   C40       1.0  0.11780  0.91039  0.34650  1.0000
  C   C41       1.0  0.10023  0.89841  0.26437  1.0000
  C   C42       1.0  0.06605  0.87516  0.26696  1.0000
  H   H14       1.0  0.05241  0.86839  0.20748  1.0000
  N   N14       1.0  0.11603  0.91168  0.18148  1.0000
  O   O27       1.0  0.12589  0.88349  0.13229  1.0000
  O   O28       1.0  0.09221  0.93247  0.13890  1.0000
  C   C43       1.0  0.36372  0.54692  0.34211  1.0000
  C   C44       1.0  0.37579  0.56445  0.25999  1.0000
  C   C45       1.0  0.39860  0.59901  0.26261  1.0000
  H   H15       1.0  0.40878  0.61042  0.20319  1.0000
  N   N15       1.0  0.36647  0.54598  0.17715  1.0000
  O   O29       1.0  0.34684  0.56811  0.12730  1.0000
  O   O30       1.0  0.39658  0.53582  0.13526  1.0000
  C   C46       1.0  0.64497  0.45949  0.34192  1.0000
  C   C47       1.0  0.63288  0.44194  0.25983  1.0000
  C   C48       1.0  0.60993  0.40746  0.26244  1.0000
  H   H16       1.0  0.59975  0.39605  0.20301  1.0000
  N   N16       1.0  0.64230  0.46034  0.17697  1.0000
  O   O31       1.0  0.66187  0.43811  0.12722  1.0000
  O   O32       1.0  0.61225  0.47058  0.13498  1.0000
  C   C49       1.0  0.54888  0.64463  0.34234  1.0000
  C   C50       1.0  0.56642  0.63273  0.26023  1.0000
  C   C51       1.0  0.60093  0.61028  0.26283  1.0000
  H   H17       1.0  0.61224  0.60013  0.20338  1.0000
  N   N17       1.0  0.54797  0.64177  0.17736  1.0000
  O   O33       1.0  0.56991  0.66173  0.12737  1.0000
  O   O34       1.0  0.53795  0.61135  0.13566  1.0000
  C   C52       1.0  0.45943  0.36193  0.34212  1.0000
  C   C53       1.0  0.44176  0.37362  0.26002  1.0000
  C   C54       1.0  0.40718  0.39594  0.26262  1.0000
  H   H18       1.0  0.39581  0.40605  0.20319  1.0000
  N   N18       1.0  0.46015  0.36446  0.17716  1.0000
  O   O35       1.0  0.43823  0.34429  0.12757  1.0000
  O   O36       1.0  0.46999  0.39483  0.13501  1.0000
  C   C55       1.0  0.08106  0.37681  0.34551  1.0000
  C   C56       1.0  0.12076  0.38770  0.34458  1.0000
  C   C57       1.0  0.13206  0.42747  0.34419  1.0000
  C   C58       1.0  0.10297  0.45659  0.34437  1.0000
  C   C59       1.0  0.06301  0.44636  0.34529  1.0000
  C   C60       1.0  0.05240  0.40634  0.34620  1.0000
  H   H19       1.0  0.11095  0.48548  0.34405  1.0000
  H   H20       1.0  0.02356  0.39862  0.34743  1.0000
  H   H21       1.0  0.14168  0.36643  0.34442  1.0000
  C   C61       1.0  0.92652  0.63281  0.34706  1.0000
  C   C62       1.0  0.88689  0.62159  0.34668  1.0000
  C   C63       1.0  0.87591  0.58172  0.34570  1.0000
  C   C64       1.0  0.90527  0.55285  0.34494  1.0000
  C   C65       1.0  0.94515  0.56341  0.34584  1.0000
  C   C66       1.0  0.95542  0.60352  0.34684  1.0000
  H   H22       1.0  0.89753  0.52391  0.34370  1.0000
  H   H23       1.0  0.98420  0.61147  0.34716  1.0000
  H   H24       1.0  0.86580  0.64268  0.34692  1.0000
  C   C67       1.0  0.63226  0.08081  0.34566  1.0000
  C   C68       1.0  0.62136  0.12060  0.34483  1.0000
  C   C69       1.0  0.58175  0.13153  0.34432  1.0000
  C   C70       1.0  0.55280  0.10200  0.34433  1.0000
  C   C71       1.0  0.56303  0.06198  0.34524  1.0000
  C   C72       1.0  0.60287  0.05172  0.34621  1.0000
  H   H25       1.0  0.52404  0.10973  0.34398  1.0000
  H   H26       1.0  0.61055  0.02283  0.34741  1.0000
  H   H27       1.0  0.64249  0.14185  0.34476  1.0000
  C   C73       1.0  0.37540  0.92592  0.34708  1.0000
  C   C74       1.0  0.38612  0.88607  0.34667  1.0000
  C   C75       1.0  0.42569  0.87496  0.34564  1.0000
  C   C76       1.0  0.45476  0.90437  0.34484  1.0000
  C   C77       1.0  0.44471  0.94443  0.34580  1.0000
  C   C78       1.0  0.40492  0.95487  0.34687  1.0000
  H   H28       1.0  0.48349  0.89653  0.34358  1.0000
  H   H29       1.0  0.39738  0.98381  0.34721  1.0000
  H   H30       1.0  0.36490  0.86493  0.34689  1.0000
  C   C79       1.0  0.06840  0.14627  0.34781  1.0000
  C   C80       1.0  0.02939  0.13319  0.34860  1.0000
  C   C81       1.0  0.99824  0.15994  0.34842  1.0000
  C   C82       1.0  0.00642  0.20044  0.34777  1.0000
  C   C83       1.0  0.04534  0.21416  0.34701  1.0000
  C   C84       1.0  0.07618  0.18686  0.34670  1.0000
  H   H31       1.0  0.98392  0.21998  0.34769  1.0000
  H   H32       1.0  0.10443  0.19653  0.34563  1.0000
  H   H33       1.0  0.02357  0.10375  0.34910  1.0000
  C   C85       1.0  0.93987  0.86333  0.34788  1.0000
  C   C86       1.0  0.97890  0.87631  0.34855  1.0000
  C   C87       1.0  0.00997  0.84948  0.34846  1.0000
  C   C88       1.0  0.00169  0.80900  0.34799  1.0000
  C   C89       1.0  0.96273  0.79538  0.34734  1.0000
  C   C90       1.0  0.93196  0.82277  0.34698  1.0000
  H   H34       1.0  0.02413  0.78939  0.34802  1.0000
  H   H35       1.0  0.90369  0.81319  0.34602  1.0000
  H   H36       1.0  0.98478  0.90574  0.34894  1.0000
  C   C91       1.0  0.86175  0.06920  0.34766  1.0000
  C   C92       1.0  0.87467  0.03011  0.34863  1.0000
  C   C93       1.0  0.84799  0.99864  0.34870  1.0000
  C   C94       1.0  0.80768  0.00657  0.34808  1.0000
  C   C95       1.0  0.79410  0.04559  0.34713  1.0000
  C   C96       1.0  0.82138  0.07676  0.34659  1.0000
  H   H37       1.0  0.78819  0.98384  0.34819  1.0000
  H   H38       1.0  0.81185  0.10508  0.34538  1.0000
  H   H39       1.0  0.90397  0.02448  0.34910  1.0000
  C   C97       1.0  0.14630  0.94053  0.34757  1.0000
  C   C98       1.0  0.13362  0.97969  0.34844  1.0000
  C   C99       1.0  0.16048  0.01102  0.34857  1.0000
  C   C100      1.0  0.20075  0.00281  0.34812  1.0000
  C   C101      1.0  0.21409  0.96369  0.34725  1.0000
  C   C102      1.0  0.18662  0.93271  0.34669  1.0000
  H   H40       1.0  0.22039  0.02542  0.34831  1.0000
  H   H41       1.0  0.19596  0.90433  0.34561  1.0000
  H   H42       1.0  0.10435  0.98548  0.34883  1.0000
  C   C103      1.0  0.44016  0.64467  0.34431  1.0000
  C   C104      1.0  0.47920  0.63209  0.34355  1.0000
  C   C105      1.0  0.51026  0.65922  0.34350  1.0000
  C   C106      1.0  0.50191  0.69963  0.34390  1.0000
  C   C107      1.0  0.46292  0.71286  0.34468  1.0000
  C   C108      1.0  0.43220  0.68514  0.34520  1.0000
  H   H43       1.0  0.52433  0.71946  0.34383  1.0000
  H   H44       1.0  0.40391  0.69441  0.34625  1.0000
  H   H45       1.0  0.48509  0.60271  0.34320  1.0000
  C   C109      1.0  0.56819  0.36191  0.34416  1.0000
  C   C110      1.0  0.52915  0.37453  0.34347  1.0000
  C   C111      1.0  0.49807  0.34742  0.34341  1.0000
  C   C112      1.0  0.50636  0.30700  0.34371  1.0000
  C   C113      1.0  0.54533  0.29374  0.34443  1.0000
  C   C114      1.0  0.57609  0.32143  0.34494  1.0000
  H   H46       1.0  0.48393  0.28719  0.34357  1.0000
  H   H47       1.0  0.60437  0.31211  0.34590  1.0000
  H   H48       1.0  0.52328  0.40391  0.34313  1.0000
  C   C115      1.0  0.64621  0.56871  0.34429  1.0000
  C   C116      1.0  0.63327  0.52950  0.34341  1.0000
  C   C117      1.0  0.65992  0.49825  0.34326  1.0000
  C   C118      1.0  0.70024  0.50653  0.34367  1.0000
  C   C119      1.0  0.71387  0.54566  0.34459  1.0000
  C   C120      1.0  0.68661  0.57659  0.34524  1.0000
  H   H49       1.0  0.71971  0.48395  0.34352  1.0000
  H   H50       1.0  0.69617  0.60498  0.34642  1.0000
  H   H51       1.0  0.60396  0.52362  0.34304  1.0000
  C   C121      1.0  0.36205  0.43772  0.34420  1.0000
  C   C122      1.0  0.37518  0.47686  0.34354  1.0000
  C   C123      1.0  0.34868  0.50823  0.34347  1.0000
  C   C124      1.0  0.30833  0.50016  0.34378  1.0000
  C   C125      1.0  0.29452  0.46110  0.34439  1.0000
  C   C126      1.0  0.32162  0.43002  0.34486  1.0000
  H   H52       1.0  0.28897  0.52283  0.34361  1.0000
  H   H53       1.0  0.31191  0.40167  0.34581  1.0000
  H   H54       1.0  0.40451  0.48262  0.34324  1.0000
  C   C127      1.0  0.03381  0.47583  0.34673  1.0000
  C   C128      1.0  0.01867  0.49059  0.42894  1.0000
  C   C129      1.0  0.98930  0.51958  0.42675  1.0000
  H   H55       1.0  0.97859  0.53007  0.48647  1.0000
  N   N19       1.0  0.03330  0.47606  0.51167  1.0000
  O   O37       1.0  0.04862  0.50284  0.55778  1.0000
  O   O38       1.0  0.00687  0.46015  0.55755  1.0000
  C   C130      1.0  0.53359  0.03252  0.34667  1.0000
  C   C131      1.0  0.51843  0.01767  0.42891  1.0000
  C   C132      1.0  0.48897  0.98850  0.42673  1.0000
  H   H56       1.0  0.47822  0.97795  0.48644  1.0000
  N   N20       1.0  0.53304  0.03236  0.51164  1.0000
  O   O39       1.0  0.50661  0.04811  0.55736  1.0000
  O   O40       1.0  0.54828  0.00573  0.55791  1.0000
  C   C133      1.0  0.07052  0.33656  0.34714  1.0000
  C   C134      1.0  0.06563  0.31604  0.42956  1.0000
  C   C135      1.0  0.05699  0.27550  0.42761  1.0000
  H   H57       1.0  0.05367  0.26084  0.48738  1.0000
  N   N21       1.0  0.06983  0.33644  0.51216  1.0000
  O   O41       1.0  0.03901  0.33510  0.55773  1.0000
  O   O42       1.0  0.09709  0.32266  0.55869  1.0000
  C   C136      1.0  0.93685  0.67312  0.34840  1.0000
  C   C137      1.0  0.94180  0.69375  0.43065  1.0000
  C   C138      1.0  0.95067  0.73425  0.42837  1.0000
  H   H58       1.0  0.95405  0.74898  0.48803  1.0000
  N   N22       1.0  0.93753  0.67351  0.51344  1.0000
  O   O43       1.0  0.96835  0.67481  0.55899  1.0000
  O   O44       1.0  0.91034  0.68751  0.55985  1.0000
  C   C139      1.0  0.67234  0.07056  0.34729  1.0000
  C   C140      1.0  0.69275  0.06568  0.42968  1.0000
  C   C141      1.0  0.73306  0.05709  0.42771  1.0000
  H   H59       1.0  0.74763  0.05380  0.48749  1.0000
  N   N23       1.0  0.67248  0.06980  0.51230  1.0000
  O   O45       1.0  0.67360  0.03883  0.55778  1.0000
  O   O46       1.0  0.68639  0.09720  0.55889  1.0000
  C   C142      1.0  0.33539  0.93652  0.34840  1.0000
  C   C143      1.0  0.31498  0.94194  0.43059  1.0000
  C   C144      1.0  0.27486  0.95139  0.42829  1.0000
  H   H60       1.0  0.26028  0.95500  0.48795  1.0000
  N   N24       1.0  0.33504  0.93749  0.51339  1.0000
  O   O47       1.0  0.33446  0.96852  0.55874  1.0000
  O   O48       1.0  0.32052  0.91041  0.55999  1.0000
  C   C145      1.0  0.45455  0.75353  0.34628  1.0000
  C   C146      1.0  0.44882  0.77387  0.42857  1.0000
  C   C147      1.0  0.43959  0.81420  0.42648  1.0000
  H   H61       1.0  0.43533  0.82864  0.48618  1.0000
  N   N25       1.0  0.45241  0.75338  0.51118  1.0000
  O   O49       1.0  0.47908  0.76761  0.55919  1.0000
  O   O50       1.0  0.42117  0.75399  0.55521  1.0000
  C   C148      1.0  0.55357  0.25305  0.34577  1.0000
  C   C149      1.0  0.55880  0.23251  0.42796  1.0000
  C   C150      1.0  0.56770  0.19210  0.42559  1.0000
  H   H62       1.0  0.57170  0.17752  0.48521  1.0000
  N   N26       1.0  0.55512  0.25286  0.51072  1.0000
  O   O51       1.0  0.52817  0.23875  0.55811  1.0000
  O   O52       1.0  0.58621  0.25189  0.55528  1.0000
  C   C151      1.0  0.75450  0.55382  0.34622  1.0000
  C   C152      1.0  0.77492  0.55904  0.42854  1.0000
  C   C153      1.0  0.81529  0.56773  0.42650  1.0000
  H   H63       1.0  0.82974  0.57179  0.48622  1.0000
  N   N27       1.0  0.75448  0.55556  0.51114  1.0000
  O   O53       1.0  0.76803  0.52846  0.55883  1.0000
  O   O54       1.0  0.75584  0.58684  0.55552  1.0000
  C   C154      1.0  0.25385  0.45329  0.34567  1.0000
  C   C155      1.0  0.23310  0.44914  0.42786  1.0000
  C   C156      1.0  0.19258  0.44123  0.42547  1.0000
  H   H64       1.0  0.17788  0.43785  0.48509  1.0000
  N   N28       1.0  0.25337  0.45280  0.51065  1.0000
  O   O55       1.0  0.24022  0.48048  0.55712  1.0000
  O   O56       1.0  0.25128  0.42186  0.55614  1.0000
  C   C157      1.0  0.14566  0.04970  0.35004  1.0000
  C   C158      1.0  0.13326  0.06695  0.43211  1.0000
  C   C159      1.0  0.11016  0.10111  0.42956  1.0000
  H   H65       1.0  0.09980  0.11227  0.48898  1.0000
  N   N29       1.0  0.14252  0.04852  0.51494  1.0000
  O   O57       1.0  0.16183  0.07092  0.56524  1.0000
  O   O58       1.0  0.11238  0.03777  0.55633  1.0000
  C   C160      1.0  0.86295  0.96004  0.35016  1.0000
  C   C161      1.0  0.87529  0.94278  0.43226  1.0000
  C   C162      1.0  0.89828  0.90855  0.42966  1.0000
  H   H66       1.0  0.90861  0.89734  0.48906  1.0000
  N   N30       1.0  0.86610  0.96126  0.51508  1.0000
  O   O59       1.0  0.84677  0.93892  0.56548  1.0000
  O   O60       1.0  0.89628  0.97196  0.55635  1.0000
  C   C163      1.0  0.95961  0.14507  0.34964  1.0000
  C   C164      1.0  0.94194  0.13332  0.43180  1.0000
  C   C165      1.0  0.90720  0.11091  0.42922  1.0000
  H   H67       1.0  0.89578  0.10077  0.48867  1.0000
  N   N31       1.0  0.96040  0.14253  0.51465  1.0000
  O   O61       1.0  0.93863  0.16265  0.56423  1.0000
  O   O62       1.0  0.97003  0.11219  0.55682  1.0000
  C   C166      1.0  0.04859  0.86433  0.34966  1.0000
  C   C167      1.0  0.06624  0.87619  0.43178  1.0000
  C   C168      1.0  0.10087  0.89875  0.42919  1.0000
  H   H68       1.0  0.11226  0.90894  0.48862  1.0000
  N   N32       1.0  0.04782  0.86694  0.51465  1.0000
  O   O63       1.0  0.06969  0.84695  0.56431  1.0000
  O   O64       1.0  0.03804  0.89725  0.55673  1.0000
  C   C169      1.0  0.41020  0.61598  0.34532  1.0000
  C   C170      1.0  0.39807  0.59848  0.42744  1.0000
  C   C171      1.0  0.37463  0.56434  0.42484  1.0000
  H   H69       1.0  0.36771  0.55073  0.48431  1.0000
  N   N33       1.0  0.41130  0.61430  0.51037  1.0000
  O   O65       1.0  0.38326  0.62444  0.55936  1.0000
  O   O66       1.0  0.43175  0.59022  0.55315  1.0000
  C   C172      1.0  0.59820  0.39057  0.34514  1.0000
  C   C173      1.0  0.61037  0.40805  0.42726  1.0000
  C   C174      1.0  0.63390  0.44213  0.42463  1.0000
  H   H70       1.0  0.64086  0.45573  0.48410  1.0000
  N   N34       1.0  0.59710  0.39227  0.51018  1.0000
  O   O67       1.0  0.62509  0.38204  0.55917  1.0000
  O   O68       1.0  0.57671  0.41641  0.55296  1.0000
  C   C175      1.0  0.61787  0.59878  0.34551  1.0000
  C   C176      1.0  0.60030  0.61064  0.42761  1.0000
  C   C177      1.0  0.56625  0.63379  0.42501  1.0000
  H   H71       1.0  0.55264  0.64052  0.48448  1.0000
  N   N35       1.0  0.61596  0.59734  0.51048  1.0000
  O   O69       1.0  0.62588  0.62550  0.55995  1.0000
  O   O70       1.0  0.59198  0.57638  0.55276  1.0000
  C   C178      1.0  0.39030  0.40755  0.34530  1.0000
  C   C179      1.0  0.40793  0.39578  0.42740  1.0000
  C   C180      1.0  0.44206  0.37274  0.42482  1.0000
  H   H72       1.0  0.45573  0.36615  0.48429  1.0000
  N   N36       1.0  0.39226  0.40904  0.51029  1.0000
  O   O71       1.0  0.38240  0.38086  0.55974  1.0000
  O   O72       1.0  0.41619  0.43005  0.55258  1.0000
