data_image0
_chemical_formula_structural       C2H4CH4NC2HCHCH3NHNC2HCHCH3NHNCHCHCH3NHC29H17C3O3C29H17C3O3CNCNCNH3NHCNCNCNH3NHCNCNCNH3NH
_chemical_formula_sum              "C87 H72 N18 O6"
_cell_length_a       44.9121
_cell_length_b       44.9121
_cell_length_c       14.9894
_cell_angle_alpha    90
_cell_angle_beta     90
_cell_angle_gamma    120

_space_group_name_H-M_alt    "P 1"
_space_group_IT_number       1

loop_
  _space_group_symop_operation_xyz
  'x, y, z'

loop_
  _atom_site_type_symbol
  _atom_site_label
  _atom_site_symmetry_multiplicity
  _atom_site_fract_x
  _atom_site_fract_y
  _atom_site_fract_z
  _atom_site_occupancy
  C   C1        1.0  0.01282  0.49983  0.25277  1.0000
  C   C2        1.0  0.40749  0.85479  0.31463  1.0000
  H   H1        1.0  0.39661  0.86967  0.30218  1.0000
  H   H2        1.0  0.36261  0.80913  0.27935  1.0000
  H   H3        1.0  0.47381  0.60430  0.30233  1.0000
  H   H4        1.0  0.13117  0.52714  0.30213  1.0000
  C   C3        1.0  0.59129  0.14546  0.33828  1.0000
  H   H5        1.0  0.60213  0.13013  0.33983  1.0000
  H   H6        1.0  0.63890  0.19066  0.35520  1.0000
  H   H7        1.0  0.52870  0.39873  0.33975  1.0000
  H   H8        1.0  0.87073  0.47218  0.33979  1.0000
  N   N1        1.0  0.51672  0.49460  0.26902  1.0000
  C   C4        1.0  0.50114  0.51325  0.25284  1.0000
  C   C5        1.0  0.48585  0.52118  0.32424  1.0000
  H   H9        1.0  0.49970  0.52026  0.18884  1.0000
  C   C6        1.0  0.51870  0.44295  0.00439  1.0000
  H   H10       1.0  0.51245  0.43828  0.07529  1.0000
  C   C7        1.0  0.55273  0.50605  0.03273  1.0000
  H   H11       1.0  0.54674  0.50161  0.10359  1.0000
  H   H12       1.0  0.55479  0.53068  0.01587  1.0000
  H   H13       1.0  0.57767  0.50789  0.02141  1.0000
  N   N2        1.0  0.46950  0.53975  0.31131  1.0000
  H   H14       1.0  0.47447  0.55267  0.25569  1.0000
  N   N3        1.0  0.50626  0.02227  0.26898  1.0000
  C   C8        1.0  0.48762  0.98805  0.25279  1.0000
  C   C9        1.0  0.47967  0.96482  0.32419  1.0000
  H   H15       1.0  0.48061  0.97960  0.18879  1.0000
  C   C10       1.0  0.55791  0.07592  0.00430  1.0000
  H   H16       1.0  0.56260  0.07435  0.07520  1.0000
  C   C11       1.0  0.49482  0.04682  0.03270  1.0000
  H   H17       1.0  0.49928  0.04529  0.10356  1.0000
  H   H18       1.0  0.47019  0.02423  0.01588  1.0000
  H   H19       1.0  0.49295  0.06990  0.02137  1.0000
  N   N4        1.0  0.46113  0.92990  0.31121  1.0000
  H   H20       1.0  0.44822  0.92195  0.25559  1.0000
  N   N5        1.0  0.97859  0.48421  0.26898  1.0000
  C   C12       1.0  0.03605  0.51510  0.32418  1.0000
  H   H21       1.0  0.02127  0.50123  0.18879  1.0000
  C   C13       1.0  0.92496  0.48220  0.00436  1.0000
  H   H22       1.0  0.92654  0.48845  0.07526  1.0000
  C   C14       1.0  0.95407  0.44821  0.03269  1.0000
  H   H23       1.0  0.95562  0.45420  0.10355  1.0000
  H   H24       1.0  0.97666  0.44617  0.01583  1.0000
  H   H25       1.0  0.93099  0.42326  0.02137  1.0000
  N   N6        1.0  0.07097  0.53150  0.31121  1.0000
  H   H26       1.0  0.07892  0.52653  0.25559  1.0000
  C   C15       1.0  0.44145  0.86972  0.34797  1.0000
  C   C16       1.0  0.45470  0.84769  0.36688  1.0000
  C   C17       1.0  0.43476  0.81202  0.35292  1.0000
  C   C18       1.0  0.40051  0.79704  0.32172  1.0000
  C   C19       1.0  0.38734  0.81903  0.30170  1.0000
  C   C20       1.0  0.37981  0.76168  0.31034  1.0000
  C   C21       1.0  0.37734  0.73835  0.37059  1.0000
  C   C22       1.0  0.35581  0.70324  0.36095  1.0000
  C   C23       1.0  0.31970  0.68875  0.36161  1.0000
  C   C24       1.0  0.29764  0.65272  0.36109  1.0000
  C   C25       1.0  0.31212  0.63109  0.36167  1.0000
  C   C26       1.0  0.34814  0.64506  0.36106  1.0000
  C   C27       1.0  0.36977  0.68117  0.36153  1.0000
  C   C28       1.0  0.36174  0.62354  0.37070  1.0000
  C   C29       1.0  0.38260  0.62108  0.31045  1.0000
  C   C30       1.0  0.39726  0.60038  0.32181  1.0000
  C   C31       1.0  0.43243  0.61356  0.30186  1.0000
  C   C32       1.0  0.37800  0.56613  0.35302  1.0000
  C   C33       1.0  0.39373  0.54619  0.36700  1.0000
  C   C34       1.0  0.42901  0.55944  0.34808  1.0000
  C   C35       1.0  0.44804  0.59340  0.31469  1.0000
  C   C36       1.0  0.26253  0.63913  0.37077  1.0000
  C   C37       1.0  0.23919  0.61828  0.31050  1.0000
  C   C38       1.0  0.20384  0.60364  0.32187  1.0000
  C   C39       1.0  0.18887  0.62291  0.35317  1.0000
  C   C40       1.0  0.18183  0.56849  0.30180  1.0000
  C   C41       1.0  0.14606  0.55290  0.31464  1.0000
  C   C42       1.0  0.13115  0.57193  0.34806  1.0000
  C   C43       1.0  0.15319  0.60720  0.36711  1.0000
  H   H27       1.0  0.47927  0.85746  0.39023  1.0000
  H   H28       1.0  0.44544  0.79704  0.36668  1.0000
  H   H29       1.0  0.39592  0.69147  0.36517  1.0000
  H   H30       1.0  0.30940  0.70459  0.36522  1.0000
  H   H31       1.0  0.29628  0.60495  0.36532  1.0000
  H   H32       1.0  0.20386  0.64857  0.36698  1.0000
  H   H33       1.0  0.44725  0.63828  0.27945  1.0000
  H   H34       1.0  0.37894  0.52163  0.39034  1.0000
  H   H35       1.0  0.35233  0.55544  0.36675  1.0000
  H   H36       1.0  0.14343  0.62199  0.39051  1.0000
  H   H37       1.0  0.19172  0.55367  0.27932  1.0000
  H   H38       1.0  0.38913  0.63581  0.25614  1.0000
  H   H39       1.0  0.35551  0.60942  0.42601  1.0000
  H   H40       1.0  0.36506  0.75348  0.25607  1.0000
  H   H41       1.0  0.39148  0.74624  0.42589  1.0000
  H   H42       1.0  0.24739  0.61177  0.25617  1.0000
  H   H43       1.0  0.25464  0.64536  0.42611  1.0000
  C   C44       1.0  0.09522  0.55603  0.36548  1.0000
  C   C45       1.0  0.44495  0.53945  0.36556  1.0000
  C   C46       1.0  0.46147  0.90565  0.36540  1.0000
  O   O1        1.0  0.43286  0.51754  0.43578  1.0000
  O   O2        1.0  0.48330  0.91546  0.43579  1.0000
  O   O3        1.0  0.08541  0.56802  0.43595  1.0000
  C   C47       1.0  0.55550  0.13108  0.32473  1.0000
  C   C48       1.0  0.54230  0.15381  0.31982  1.0000
  C   C49       1.0  0.56398  0.18954  0.32888  1.0000
  C   C50       1.0  0.59979  0.20381  0.34127  1.0000
  C   C51       1.0  0.61308  0.18122  0.34663  1.0000
  C   C52       1.0  0.62181  0.23906  0.34947  1.0000
  C   C53       1.0  0.62202  0.26236  0.29270  1.0000
  C   C54       1.0  0.64449  0.29751  0.29937  1.0000
  C   C55       1.0  0.68051  0.31124  0.29872  1.0000
  C   C56       1.0  0.70335  0.34713  0.29933  1.0000
  C   C57       1.0  0.68963  0.36943  0.29872  1.0000
  C   C58       1.0  0.65373  0.35637  0.29934  1.0000
  C   C59       1.0  0.63143  0.32035  0.29876  1.0000
  C   C60       1.0  0.64105  0.37884  0.29266  1.0000
  C   C61       1.0  0.61796  0.37905  0.34944  1.0000
  C   C62       1.0  0.60473  0.40107  0.34125  1.0000
  C   C63       1.0  0.56885  0.38778  0.34660  1.0000
  C   C64       1.0  0.62627  0.43688  0.32886  1.0000
  C   C65       1.0  0.61222  0.45856  0.31978  1.0000
  C   C66       1.0  0.57628  0.44536  0.32467  1.0000
  C   C67       1.0  0.55487  0.40956  0.33824  1.0000
  C   C68       1.0  0.73850  0.35981  0.29265  1.0000
  C   C69       1.0  0.76181  0.38291  0.34942  1.0000
  C   C70       1.0  0.79705  0.39614  0.34120  1.0000
  C   C71       1.0  0.81133  0.37462  0.32878  1.0000
  C   C72       1.0  0.81963  0.43202  0.34654  1.0000
  C   C73       1.0  0.85540  0.44601  0.33820  1.0000
  C   C74       1.0  0.86979  0.42461  0.32464  1.0000
  C   C75       1.0  0.84706  0.38867  0.31972  1.0000
  H   H44       1.0  0.51654  0.14454  0.31105  1.0000
  H   H45       1.0  0.55335  0.20506  0.32616  1.0000
  H   H46       1.0  0.60536  0.31064  0.29601  1.0000
  H   H47       1.0  0.69022  0.29487  0.29599  1.0000
  H   H48       1.0  0.70599  0.39550  0.29596  1.0000
  H   H49       1.0  0.79582  0.34846  0.32604  1.0000
  H   H50       1.0  0.55246  0.36196  0.35515  1.0000
  H   H51       1.0  0.62871  0.48432  0.31099  1.0000
  H   H52       1.0  0.65242  0.44751  0.32613  1.0000
  H   H53       1.0  0.85634  0.37219  0.31089  1.0000
  H   H54       1.0  0.81019  0.44840  0.35520  1.0000
  H   H55       1.0  0.60879  0.36183  0.39859  1.0000
  H   H56       1.0  0.65004  0.39581  0.24294  1.0000
  H   H57       1.0  0.63903  0.24711  0.39860  1.0000
  H   H58       1.0  0.60505  0.25438  0.24298  1.0000
  H   H59       1.0  0.75375  0.39207  0.39857  1.0000
  H   H60       1.0  0.74648  0.35084  0.24290  1.0000
  C   C76       1.0  0.90591  0.43858  0.31385  1.0000
  C   C77       1.0  0.56232  0.46752  0.31387  1.0000
  C   C78       1.0  0.53333  0.09495  0.31395  1.0000
  O   O4        1.0  0.58012  0.49591  0.26256  1.0000
  O   O5        1.0  0.50495  0.08435  0.26259  1.0000
  O   O6        1.0  0.91652  0.42080  0.26251  1.0000
  C   C79       1.0  0.51985  0.48379  0.35150  1.0000
  N   N7        1.0  0.48931  0.51058  0.40671  1.0000
  C   C80       1.0  0.50550  0.49254  0.42443  1.0000
  N   N8        1.0  0.50696  0.48607  0.51011  1.0000
  C   C81       1.0  0.53002  0.48382  0.55528  1.0000
  N   N9        1.0  0.52508  0.47774  0.64610  1.0000
  H   H61       1.0  0.55168  0.48759  0.52688  1.0000
  H   H62       1.0  0.49679  0.42310  0.63394  1.0000
  H   H63       1.0  0.54117  0.44026  0.65780  1.0000
  N   N10       1.0  0.53404  0.46309  0.35912  1.0000
  H   H64       1.0  0.52382  0.44477  0.40329  1.0000
  C   C82       1.0  0.51709  0.03622  0.35146  1.0000
  N   N11       1.0  0.49029  0.97888  0.40665  1.0000
  C   C83       1.0  0.50833  0.01310  0.42438  1.0000
  N   N12       1.0  0.51480  0.02103  0.51007  1.0000
  C   C84       1.0  0.51704  0.04633  0.55524  1.0000
  N   N13       1.0  0.52313  0.04748  0.64604  1.0000
  H   H65       1.0  0.51324  0.06421  0.52683  1.0000
  H   H66       1.0  0.57776  0.07386  0.63383  1.0000
  H   H67       1.0  0.56059  0.10107  0.65770  1.0000
  N   N14       1.0  0.53778  0.07109  0.35910  1.0000
  H   H68       1.0  0.55609  0.07919  0.40330  1.0000
  C   C85       1.0  0.96464  0.48107  0.35146  1.0000
  N   N15       1.0  0.02198  0.51165  0.40665  1.0000
  C   C86       1.0  0.98776  0.49545  0.42437  1.0000
  N   N16       1.0  0.97983  0.49399  0.51007  1.0000
  C   C87       1.0  0.95454  0.47091  0.55525  1.0000
  N   N17       1.0  0.95340  0.47586  0.64606  1.0000
  H   H69       1.0  0.93665  0.44924  0.52685  1.0000
  H   H70       1.0  0.92701  0.50411  0.63391  1.0000
  H   H71       1.0  0.89981  0.45972  0.65778  1.0000
  N   N18       1.0  0.92976  0.46686  0.35911  1.0000
  H   H72       1.0  0.92165  0.47707  0.40330  1.0000
