data_image0
_chemical_formula_structural       C16H20C16H20C16H20C3H2NHC3H2NHC3H2NHC3H2NHC3H2NHC3H2NHC3NC3NC5NC5NC36H26C4H4C3NC3NC5NC5NC36H26C4H4C3NC3NC5NC5NC36H26C4H4C3HOHNHC3HOHNHC3HOHNHC3HOHNHC3HOHNHC3HOHNH
_chemical_formula_sum              "C252 H186 N24 O6"
_cell_length_a       66.2968
_cell_length_b       66.2968
_cell_length_c       15.0111
_cell_angle_alpha    89.958
_cell_angle_beta     90.042
_cell_angle_gamma    120

_space_group_name_H-M_alt    "P 1"
_space_group_IT_number       1

loop_
  _space_group_symop_operation_xyz
  'x, y, z'

loop_
  _atom_site_type_symbol
  _atom_site_label
  _atom_site_symmetry_multiplicity
  _atom_site_fract_x
  _atom_site_fract_y
  _atom_site_fract_z
  _atom_site_occupancy
  C   C1        1.0  0.10019  0.53710  0.24819  1.0000
  C   C2        1.0  0.11845  0.53211  0.24564  1.0000
  C   C3        1.0  0.18682  0.53680  0.25588  1.0000
  C   C4        1.0  0.16702  0.53936  0.25698  1.0000
  C   C5        1.0  0.09858  0.65686  0.26476  1.0000
  C   C6        1.0  0.11414  0.68099  0.26991  1.0000
  C   C7        1.0  0.13418  0.73295  0.29444  1.0000
  C   C8        1.0  0.14976  0.75709  0.29955  1.0000
  C   C9        1.0  0.94084  0.58850  0.24615  1.0000
  C   C10       1.0  0.95894  0.58327  0.24848  1.0000
  C   C11       1.0  0.89260  0.58210  0.25873  1.0000
  C   C12       1.0  0.87311  0.58517  0.25769  1.0000
  C   C13       1.0  0.96045  0.46373  0.26424  1.0000
  C   C14       1.0  0.94469  0.43964  0.26927  1.0000
  C   C15       1.0  0.90785  0.36348  0.29799  1.0000
  C   C16       1.0  0.92382  0.38754  0.29308  1.0000
  H   H1        1.0  0.90842  0.35277  0.25024  1.0000
  H   H2        1.0  0.93581  0.39349  0.24265  1.0000
  H   H3        1.0  0.93666  0.43099  0.21195  1.0000
  H   H4        1.0  0.96380  0.47188  0.20365  1.0000
  H   H5        1.0  0.96647  0.58254  0.18997  1.0000
  H   H6        1.0  0.93586  0.59165  0.18558  1.0000
  H   H7        1.0  0.09518  0.64878  0.20404  1.0000
  H   H8        1.0  0.12199  0.68975  0.21254  1.0000
  H   H9        1.0  0.14884  0.76771  0.25220  1.0000
  H   H10       1.0  0.12211  0.72684  0.24425  1.0000
  H   H11       1.0  0.16615  0.55049  0.21194  1.0000
  H   H12       1.0  0.19951  0.54591  0.20963  1.0000
  H   H13       1.0  0.12336  0.52892  0.18505  1.0000
  H   H14       1.0  0.09249  0.53765  0.18980  1.0000
  H   H15       1.0  0.89312  0.57071  0.21404  1.0000
  H   H16       1.0  0.86025  0.57613  0.21192  1.0000
  H   H17       1.0  0.17950  0.80145  0.32384  1.0000
  H   H18       1.0  0.22322  0.53185  0.26943  1.0000
  H   H19       1.0  0.83734  0.59117  0.27119  1.0000
  H   H20       1.0  0.87739  0.31929  0.32182  1.0000
  C   C17       1.0  0.55487  0.65795  0.24876  1.0000
  C   C18       1.0  0.55987  0.68120  0.24617  1.0000
  C   C19       1.0  0.55517  0.74488  0.25627  1.0000
  C   C20       1.0  0.55259  0.72251  0.25747  1.0000
  C   C21       1.0  0.43508  0.53654  0.26534  1.0000
  C   C22       1.0  0.41095  0.52798  0.27048  1.0000
  C   C23       1.0  0.35899  0.49606  0.29511  1.0000
  C   C24       1.0  0.33485  0.48750  0.30022  1.0000
  C   C25       1.0  0.50342  0.44720  0.24666  1.0000
  C   C26       1.0  0.50865  0.47052  0.24902  1.0000
  C   C27       1.0  0.50980  0.40534  0.25916  1.0000
  C   C28       1.0  0.50674  0.38278  0.25816  1.0000
  C   C29       1.0  0.62822  0.59159  0.26483  1.0000
  C   C30       1.0  0.65231  0.59992  0.26987  1.0000
  C   C31       1.0  0.72846  0.63920  0.29864  1.0000
  C   C32       1.0  0.70441  0.63112  0.29375  1.0000
  H   H21       1.0  0.73918  0.65051  0.25094  1.0000
  H   H22       1.0  0.69846  0.63719  0.24337  1.0000
  H   H23       1.0  0.66096  0.60057  0.21253  1.0000
  H   H24       1.0  0.62007  0.58683  0.20423  1.0000
  H   H25       1.0  0.50938  0.47882  0.19053  1.0000
  H   H26       1.0  0.50026  0.43909  0.18610  1.0000
  H   H27       1.0  0.44316  0.54121  0.20460  1.0000
  H   H28       1.0  0.40220  0.52707  0.21308  1.0000
  H   H29       1.0  0.32423  0.47595  0.25295  1.0000
  H   H30       1.0  0.36510  0.49009  0.24502  1.0000
  H   H31       1.0  0.54149  0.71053  0.21234  1.0000
  H   H32       1.0  0.54606  0.74847  0.21002  1.0000
  H   H33       1.0  0.56307  0.68932  0.18558  1.0000
  H   H34       1.0  0.55433  0.64971  0.19038  1.0000
  H   H35       1.0  0.52120  0.41726  0.21452  1.0000
  H   H36       1.0  0.51579  0.37898  0.21242  1.0000
  H   H37       1.0  0.29050  0.47287  0.32450  1.0000
  H   H38       1.0  0.56011  0.78622  0.26985  1.0000
  H   H39       1.0  0.50075  0.34102  0.27171  1.0000
  H   H40       1.0  0.77265  0.65290  0.32242  1.0000
  C   C33       1.0  0.43402  0.99179  0.24918  1.0000
  C   C34       1.0  0.41078  0.97354  0.24652  1.0000
  C   C35       1.0  0.34711  0.90515  0.25651  1.0000
  C   C36       1.0  0.36947  0.92495  0.25774  1.0000
  C   C37       1.0  0.55537  0.99337  0.26602  1.0000
  C   C38       1.0  0.56394  0.97781  0.27114  1.0000
  C   C39       1.0  0.59586  0.95776  0.29567  1.0000
  C   C40       1.0  0.60442  0.94218  0.30074  1.0000
  C   C41       1.0  0.64472  0.15109  0.24707  1.0000
  C   C42       1.0  0.62140  0.13300  0.24951  1.0000
  C   C43       1.0  0.68657  0.19932  0.25955  1.0000
  C   C44       1.0  0.70913  0.21882  0.25845  1.0000
  C   C45       1.0  0.50037  0.13150  0.26538  1.0000
  C   C46       1.0  0.49204  0.14726  0.27043  1.0000
  C   C47       1.0  0.45275  0.18411  0.29922  1.0000
  C   C48       1.0  0.46082  0.16813  0.29433  1.0000
  H   H41       1.0  0.44144  0.18353  0.25152  1.0000
  H   H42       1.0  0.45476  0.15614  0.24393  1.0000
  H   H43       1.0  0.49139  0.15528  0.21310  1.0000
  H   H44       1.0  0.50513  0.12814  0.20477  1.0000
  H   H45       1.0  0.61308  0.12547  0.19103  1.0000
  H   H46       1.0  0.65280  0.15607  0.18646  1.0000
  H   H47       1.0  0.55069  0.99680  0.20530  1.0000
  H   H48       1.0  0.56484  0.96998  0.21374  1.0000
  H   H49       1.0  0.61597  0.94312  0.25344  1.0000
  H   H50       1.0  0.60183  0.96985  0.24555  1.0000
  H   H51       1.0  0.38147  0.92583  0.21275  1.0000
  H   H52       1.0  0.34353  0.89246  0.21030  1.0000
  H   H53       1.0  0.40268  0.96863  0.18590  1.0000
  H   H54       1.0  0.44228  0.99949  0.19082  1.0000
  H   H55       1.0  0.67463  0.19883  0.21503  1.0000
  H   H56       1.0  0.71291  0.23169  0.21278  1.0000
  H   H57       1.0  0.61905  0.91244  0.32496  1.0000
  H   H58       1.0  0.30576  0.86874  0.26992  1.0000
  H   H59       1.0  0.75091  0.25458  0.27181  1.0000
  H   H60       1.0  0.43904  0.21459  0.32301  1.0000
  C   C49       1.0  0.22764  0.49592  0.32299  1.0000
  C   C50       1.0  0.24328  0.50221  0.25067  1.0000
  C   C51       1.0  0.26531  0.50438  0.26239  1.0000
  H   H61       1.0  0.27685  0.51015  0.21044  1.0000
  H   H62       1.0  0.23915  0.50645  0.19049  1.0000
  N   N1        1.0  0.20691  0.49705  0.31737  1.0000
  H   H63       1.0  0.19816  0.48912  0.25973  1.0000
  C   C52       1.0  0.59601  0.82655  0.32353  1.0000
  C   C53       1.0  0.58972  0.83592  0.25120  1.0000
  C   C54       1.0  0.58751  0.85576  0.26297  1.0000
  H   H64       1.0  0.58180  0.86158  0.21096  1.0000
  H   H65       1.0  0.58550  0.82759  0.19099  1.0000
  N   N2        1.0  0.59489  0.80469  0.31789  1.0000
  H   H66       1.0  0.60284  0.80392  0.26027  1.0000
  C   C55       1.0  0.26541  0.86429  0.32315  1.0000
  C   C56       1.0  0.25608  0.84867  0.25075  1.0000
  C   C57       1.0  0.23622  0.82663  0.26231  1.0000
  H   H67       1.0  0.23041  0.81514  0.21020  1.0000
  H   H68       1.0  0.26442  0.85285  0.19054  1.0000
  N   N3        1.0  0.28727  0.88504  0.31767  1.0000
  H   H69       1.0  0.28808  0.89379  0.26003  1.0000
  C   C58       1.0  0.83404  0.62784  0.32274  1.0000
  C   C59       1.0  0.81840  0.62174  0.25045  1.0000
  C   C60       1.0  0.79662  0.62017  0.26193  1.0000
  H   H70       1.0  0.78509  0.61462  0.20993  1.0000
  H   H71       1.0  0.82236  0.61731  0.19039  1.0000
  N   N4        1.0  0.85446  0.62613  0.31746  1.0000
  H   H72       1.0  0.86324  0.63377  0.25956  1.0000
  C   C61       1.0  0.46409  0.30103  0.32329  1.0000
  C   C62       1.0  0.47018  0.29150  0.25100  1.0000
  C   C63       1.0  0.47176  0.27131  0.26251  1.0000
  H   H73       1.0  0.47732  0.26534  0.21052  1.0000
  H   H74       1.0  0.47463  0.29993  0.19097  1.0000
  N   N5        1.0  0.46579  0.32316  0.31801  1.0000
  H   H75       1.0  0.45814  0.32430  0.26011  1.0000
  C   C64       1.0  0.79091  0.25787  0.32292  1.0000
  C   C65       1.0  0.80041  0.27348  0.25050  1.0000
  C   C66       1.0  0.82063  0.29525  0.26175  1.0000
  H   H76       1.0  0.82654  0.30677  0.20971  1.0000
  H   H77       1.0  0.79194  0.26950  0.19055  1.0000
  N   N6        1.0  0.76878  0.23745  0.31780  1.0000
  H   H78       1.0  0.76760  0.22867  0.25989  1.0000
  C   C67       1.0  0.02066  0.49199  0.33184  1.0000
  C   C68       1.0  0.04466  0.50486  0.33035  1.0000
  C   C69       1.0  0.05131  0.52846  0.33195  1.0000
  N   N7        1.0  0.03115  0.52900  0.33406  1.0000
  C   C70       1.0  0.01208  0.50742  0.33450  1.0000
  C   C71       1.0  0.98808  0.50071  0.33710  1.0000
  C   C72       1.0  0.97935  0.51637  0.33676  1.0000
  N   N8        1.0  0.99170  0.53988  0.33431  1.0000
  C   C73       1.0  0.97775  0.54930  0.33457  1.0000
  C   C74       1.0  0.95493  0.53060  0.33686  1.0000
  C   C75       1.0  0.95592  0.51030  0.33880  1.0000
  C   C76       1.0  0.98454  0.57328  0.33260  1.0000
  C   C77       1.0  0.00794  0.59201  0.33217  1.0000
  N   N9        1.0  0.02810  0.59146  0.33427  1.0000
  C   C78       1.0  0.04717  0.61305  0.33479  1.0000
  C   C79       1.0  0.03859  0.62848  0.33216  1.0000
  C   C80       1.0  0.01459  0.61561  0.33060  1.0000
  C   C81       1.0  0.07117  0.61975  0.33741  1.0000
  C   C82       1.0  0.07990  0.60410  0.33695  1.0000
  N   N10       1.0  0.06754  0.58059  0.33445  1.0000
  C   C83       1.0  0.08150  0.57117  0.33453  1.0000
  C   C84       1.0  0.10432  0.58988  0.33670  1.0000
  C   C85       1.0  0.10333  0.61017  0.33882  1.0000
  C   C86       1.0  0.07471  0.54719  0.33244  1.0000
  C   C87       1.0  0.09278  0.54155  0.33020  1.0000
  C   C88       1.0  0.12983  0.53149  0.32467  1.0000
  C   C89       1.0  0.12198  0.53566  0.40671  1.0000
  C   C90       1.0  0.10369  0.54061  0.40958  1.0000
  C   C91       1.0  0.14929  0.52781  0.32144  1.0000
  C   C92       1.0  0.15201  0.51339  0.38424  1.0000
  C   C93       1.0  0.17189  0.51092  0.38350  1.0000
  C   C94       1.0  0.18960  0.52265  0.31944  1.0000
  C   C95       1.0  0.08767  0.64398  0.34237  1.0000
  C   C96       1.0  0.11916  0.69291  0.35246  1.0000
  C   C97       1.0  0.10812  0.67975  0.42985  1.0000
  C   C98       1.0  0.09259  0.65563  0.42503  1.0000
  C   C99       1.0  0.13485  0.71745  0.35775  1.0000
  C   C100      1.0  0.16656  0.76654  0.36822  1.0000
  C   C101      1.0  0.16706  0.75117  0.43229  1.0000
  C   C102      1.0  0.15156  0.72705  0.42692  1.0000
  C   C103      1.0  0.96649  0.57893  0.33048  1.0000
  C   C104      1.0  0.95584  0.58019  0.41004  1.0000
  C   C105      1.0  0.93771  0.58538  0.40739  1.0000
  C   C106      1.0  0.92977  0.58949  0.32541  1.0000
  C   C107      1.0  0.91056  0.59356  0.32248  1.0000
  C   C108      1.0  0.87085  0.59974  0.32068  1.0000
  C   C109      1.0  0.88878  0.61137  0.38409  1.0000
  C   C110      1.0  0.90836  0.60840  0.38473  1.0000
  C   C111      1.0  0.97156  0.47648  0.34183  1.0000
  C   C112      1.0  0.96666  0.46474  0.42433  1.0000
  C   C113      1.0  0.93965  0.42763  0.35168  1.0000
  C   C114      1.0  0.95093  0.44066  0.42904  1.0000
  C   C115      1.0  0.92363  0.40317  0.35691  1.0000
  C   C116      1.0  0.90699  0.39377  0.42636  1.0000
  C   C117      1.0  0.89111  0.36974  0.43152  1.0000
  C   C118      1.0  0.89112  0.35425  0.36692  1.0000
  H   H79       1.0  0.87931  0.36364  0.48257  1.0000
  H   H80       1.0  0.90593  0.40441  0.47319  1.0000
  H   H81       1.0  0.94817  0.43264  0.48969  1.0000
  H   H82       1.0  0.97469  0.47360  0.48136  1.0000
  H   H83       1.0  0.01126  0.47419  0.33120  1.0000
  H   H84       1.0  0.05530  0.49782  0.32906  1.0000
  H   H85       1.0  0.03046  0.54311  0.33692  1.0000
  H   H86       1.0  0.02879  0.57735  0.33715  1.0000
  H   H87       1.0  0.94171  0.49391  0.34085  1.0000
  H   H88       1.0  0.93988  0.53132  0.33758  1.0000
  H   H89       1.0  0.96098  0.57699  0.47022  1.0000
  H   H90       1.0  0.92987  0.58540  0.46606  1.0000
  H   H91       1.0  0.00395  0.62265  0.32928  1.0000
  H   H92       1.0  0.04799  0.64627  0.33156  1.0000
  H   H93       1.0  0.11937  0.58916  0.33726  1.0000
  H   H94       1.0  0.11754  0.62656  0.34079  1.0000
  H   H95       1.0  0.08467  0.64669  0.48205  1.0000
  H   H96       1.0  0.11086  0.68770  0.49060  1.0000
  H   H97       1.0  0.15296  0.71651  0.47340  1.0000
  H   H98       1.0  0.17893  0.75741  0.48316  1.0000
  H   H99       1.0  0.09868  0.54393  0.46975  1.0000
  H   H100      1.0  0.13006  0.53593  0.46520  1.0000
  H   H101      1.0  0.17352  0.50072  0.43093  1.0000
  H   H102      1.0  0.13954  0.50459  0.43161  1.0000
  H   H103      1.0  0.92101  0.61716  0.43155  1.0000
  H   H104      1.0  0.88753  0.62187  0.43107  1.0000
  C   C119      1.0  0.18367  0.79193  0.37320  1.0000
  C   C120      1.0  0.21132  0.52134  0.32278  1.0000
  C   C121      1.0  0.87358  0.32898  0.37162  1.0000
  C   C122      1.0  0.84947  0.60165  0.32402  1.0000
  H   H105      1.0  0.18250  0.79834  0.43895  1.0000
  H   H106      1.0  0.21994  0.52904  0.38606  1.0000
  H   H107      1.0  0.84089  0.59428  0.38767  1.0000
  H   H108      1.0  0.87466  0.32236  0.43712  1.0000
  C   C123      1.0  0.59996  0.62350  0.33293  1.0000
  C   C124      1.0  0.58709  0.63463  0.33139  1.0000
  C   C125      1.0  0.56349  0.61768  0.33275  1.0000
  N   N11       1.0  0.56295  0.59697  0.33475  1.0000
  C   C126      1.0  0.58453  0.59949  0.33527  1.0000
  C   C127      1.0  0.59123  0.58219  0.33770  1.0000
  C   C128      1.0  0.57557  0.55780  0.33728  1.0000
  N   N12       1.0  0.55206  0.54665  0.33491  1.0000
  C   C129      1.0  0.54264  0.52327  0.33510  1.0000
  C   C130      1.0  0.56134  0.51915  0.33726  1.0000
  C   C131      1.0  0.58164  0.54044  0.33919  1.0000
  C   C132      1.0  0.51866  0.50609  0.33318  1.0000
  C   C133      1.0  0.49993  0.51077  0.33279  1.0000
  N   N13       1.0  0.50048  0.53147  0.33487  1.0000
  C   C134      1.0  0.47890  0.52895  0.33547  1.0000
  C   C135      1.0  0.46346  0.50494  0.33297  1.0000
  C   C136      1.0  0.47633  0.49381  0.33133  1.0000
  C   C137      1.0  0.47219  0.54625  0.33805  1.0000
  C   C138      1.0  0.48785  0.57064  0.33750  1.0000
  N   N14       1.0  0.51136  0.58179  0.33507  1.0000
  C   C139      1.0  0.52078  0.60516  0.33505  1.0000
  C   C140      1.0  0.50207  0.60928  0.33710  1.0000
  C   C141      1.0  0.48177  0.58799  0.33920  1.0000
  C   C142      1.0  0.54476  0.62235  0.33304  1.0000
  C   C143      1.0  0.55040  0.64606  0.33077  1.0000
  C   C144      1.0  0.56047  0.69317  0.32519  1.0000
  C   C145      1.0  0.55627  0.68113  0.40722  1.0000
  C   C146      1.0  0.55133  0.65789  0.41014  1.0000
  C   C147      1.0  0.56415  0.71631  0.32192  1.0000
  C   C148      1.0  0.57856  0.73343  0.38474  1.0000
  C   C149      1.0  0.58103  0.75579  0.38397  1.0000
  C   C150      1.0  0.56930  0.76178  0.31988  1.0000
  C   C151      1.0  0.44796  0.53852  0.34298  1.0000
  C   C152      1.0  0.39903  0.52110  0.35305  1.0000
  C   C153      1.0  0.41220  0.52323  0.43047  1.0000
  C   C154      1.0  0.43632  0.53183  0.42567  1.0000
  C   C155      1.0  0.37450  0.51226  0.35832  1.0000
  C   C156      1.0  0.32541  0.49487  0.36877  1.0000
  C   C157      1.0  0.34079  0.51076  0.43273  1.0000
  C   C158      1.0  0.36490  0.51939  0.42734  1.0000
  C   C159      1.0  0.51300  0.48238  0.33103  1.0000
  C   C160      1.0  0.51175  0.47045  0.41058  1.0000
  C   C161      1.0  0.50657  0.44713  0.40789  1.0000
  C   C162      1.0  0.50244  0.43511  0.32591  1.0000
  C   C163      1.0  0.49835  0.41182  0.32294  1.0000
  C   C164      1.0  0.49218  0.36594  0.32118  1.0000
  C   C165      1.0  0.48055  0.37221  0.38459  1.0000
  C   C166      1.0  0.48352  0.39477  0.38524  1.0000
  C   C167      1.0  0.61546  0.58990  0.34244  1.0000
  C   C168      1.0  0.62720  0.59667  0.42497  1.0000
  C   C169      1.0  0.66431  0.60682  0.35229  1.0000
  C   C170      1.0  0.65128  0.60501  0.42967  1.0000
  C   C171      1.0  0.68878  0.61526  0.35752  1.0000
  C   C172      1.0  0.69817  0.60797  0.42690  1.0000
  C   C173      1.0  0.72220  0.61611  0.43205  1.0000
  C   C174      1.0  0.73769  0.63166  0.36751  1.0000
  H   H109      1.0  0.72829  0.61037  0.48306  1.0000
  H   H110      1.0  0.68752  0.59624  0.47370  1.0000
  H   H111      1.0  0.65929  0.61023  0.49034  1.0000
  H   H112      1.0  0.61834  0.59581  0.48201  1.0000
  H   H113      1.0  0.61776  0.63190  0.33243  1.0000
  H   H114      1.0  0.59413  0.65231  0.33030  1.0000
  H   H115      1.0  0.54883  0.58217  0.33698  1.0000
  H   H116      1.0  0.51459  0.54626  0.33764  1.0000
  H   H117      1.0  0.59802  0.54262  0.34119  1.0000
  H   H118      1.0  0.56061  0.50338  0.33795  1.0000
  H   H119      1.0  0.51495  0.47877  0.47076  1.0000
  H   H120      1.0  0.50653  0.43924  0.46656  1.0000
  H   H121      1.0  0.46929  0.47613  0.33019  1.0000
  H   H122      1.0  0.44567  0.49654  0.33250  1.0000
  H   H123      1.0  0.50279  0.62504  0.33754  1.0000
  H   H124      1.0  0.46538  0.58581  0.34112  1.0000
  H   H125      1.0  0.44526  0.53284  0.48271  1.0000
  H   H126      1.0  0.40425  0.51803  0.49124  1.0000
  H   H127      1.0  0.37545  0.53133  0.47378  1.0000
  H   H128      1.0  0.33454  0.51639  0.48352  1.0000
  H   H129      1.0  0.54800  0.64954  0.47030  1.0000
  H   H130      1.0  0.55601  0.68892  0.46570  1.0000
  H   H131      1.0  0.59121  0.76759  0.43144  1.0000
  H   H132      1.0  0.58736  0.72975  0.43215  1.0000
  H   H133      1.0  0.47476  0.39864  0.43207  1.0000
  H   H134      1.0  0.47006  0.36045  0.43161  1.0000
  C   C175      1.0  0.30002  0.48658  0.37376  1.0000
  C   C176      1.0  0.57061  0.78481  0.32323  1.0000
  C   C177      1.0  0.76296  0.63938  0.37218  1.0000
  C   C178      1.0  0.49027  0.34264  0.32454  1.0000
  H   H135      1.0  0.29361  0.47900  0.43956  1.0000
  H   H136      1.0  0.56289  0.78570  0.38648  1.0000
  H   H137      1.0  0.49765  0.34142  0.38819  1.0000
  H   H138      1.0  0.76959  0.64703  0.43770  1.0000
  C   C179      1.0  0.46845  0.07131  0.33324  1.0000
  C   C180      1.0  0.45732  0.04730  0.33174  1.0000
  C   C181      1.0  0.47428  0.04066  0.33320  1.0000
  N   N15       1.0  0.49498  0.06081  0.33527  1.0000
  C   C182      1.0  0.49247  0.07988  0.33573  1.0000
  C   C183      1.0  0.50977  0.10388  0.33822  1.0000
  C   C184      1.0  0.53416  0.11261  0.33787  1.0000
  N   N16       1.0  0.54530  0.10025  0.33549  1.0000
  C   C185      1.0  0.56868  0.11420  0.33572  1.0000
  C   C186      1.0  0.57281  0.13702  0.33788  1.0000
  C   C187      1.0  0.55152  0.13604  0.33987  1.0000
  C   C188      1.0  0.58585  0.10740  0.33380  1.0000
  C   C189      1.0  0.58118  0.08399  0.33344  1.0000
  N   N17       1.0  0.56048  0.06384  0.33562  1.0000
  C   C190      1.0  0.56299  0.04477  0.33614  1.0000
  C   C191      1.0  0.58700  0.05335  0.33352  1.0000
  C   C192      1.0  0.59813  0.07735  0.33192  1.0000
  C   C193      1.0  0.54569  0.02077  0.33876  1.0000
  C   C194      1.0  0.52131  0.01204  0.33820  1.0000
  N   N18       1.0  0.51016  0.02441  0.33571  1.0000
  C   C195      1.0  0.48678  0.01045  0.33567  1.0000
  C   C196      1.0  0.48266  0.98763  0.33780  1.0000
  C   C197      1.0  0.50395  0.98861  0.33996  1.0000
  C   C198      1.0  0.46960  0.01725  0.33358  1.0000
  C   C199      1.0  0.44589  0.99919  0.33124  1.0000
  C   C200      1.0  0.39878  0.96215  0.32551  1.0000
  C   C201      1.0  0.41079  0.96997  0.40759  1.0000
  C   C202      1.0  0.43403  0.98827  0.41058  1.0000
  C   C203      1.0  0.37565  0.94269  0.32216  1.0000
  C   C204      1.0  0.35850  0.93996  0.38485  1.0000
  C   C205      1.0  0.33614  0.92007  0.38402  1.0000
  C   C206      1.0  0.33018  0.90236  0.31998  1.0000
  C   C207      1.0  0.55342  0.00427  0.34366  1.0000
  C   C208      1.0  0.57084  0.97276  0.35369  1.0000
  C   C209      1.0  0.56873  0.98377  0.43111  1.0000
  C   C210      1.0  0.56014  0.99931  0.42632  1.0000
  C   C211      1.0  0.57968  0.95706  0.35893  1.0000
  C   C212      1.0  0.59707  0.92535  0.36932  1.0000
  C   C213      1.0  0.58119  0.92483  0.43335  1.0000
  C   C214      1.0  0.57257  0.94032  0.42800  1.0000
  C   C215      1.0  0.60957  0.12545  0.33158  1.0000
  C   C216      1.0  0.62153  0.13608  0.41110  1.0000
  C   C217      1.0  0.64485  0.15422  0.40832  1.0000
  C   C218      1.0  0.65684  0.16216  0.32629  1.0000
  C   C219      1.0  0.68012  0.18136  0.32325  1.0000
  C   C220      1.0  0.72600  0.22106  0.32130  1.0000
  C   C221      1.0  0.71976  0.20313  0.38465  1.0000
  C   C222      1.0  0.69720  0.18355  0.38537  1.0000
  C   C223      1.0  0.50206  0.12040  0.34297  1.0000
  C   C224      1.0  0.49528  0.12533  0.42550  1.0000
  C   C225      1.0  0.48513  0.15232  0.35286  1.0000
  C   C226      1.0  0.48693  0.14106  0.43022  1.0000
  C   C227      1.0  0.47669  0.16834  0.35810  1.0000
  C   C228      1.0  0.48397  0.18499  0.42750  1.0000
  C   C229      1.0  0.47583  0.20089  0.43263  1.0000
  C   C230      1.0  0.46029  0.20086  0.36809  1.0000
  H   H139      1.0  0.48157  0.21270  0.48366  1.0000
  H   H140      1.0  0.49570  0.18606  0.47428  1.0000
  H   H141      1.0  0.48170  0.14382  0.49088  1.0000
  H   H142      1.0  0.49613  0.11730  0.48253  1.0000
  H   H143      1.0  0.46006  0.08071  0.33263  1.0000
  H   H144      1.0  0.43964  0.03667  0.33050  1.0000
  H   H145      1.0  0.50978  0.06149  0.33776  1.0000
  H   H146      1.0  0.54568  0.06316  0.33849  1.0000
  H   H147      1.0  0.54934  0.15025  0.34183  1.0000
  H   H148      1.0  0.58857  0.15206  0.33866  1.0000
  H   H149      1.0  0.61323  0.13095  0.47131  1.0000
  H   H150      1.0  0.65275  0.16205  0.46697  1.0000
  H   H151      1.0  0.61581  0.08798  0.33053  1.0000
  H   H152      1.0  0.59539  0.04395  0.33291  1.0000
  H   H153      1.0  0.46690  0.97258  0.33824  1.0000
  H   H154      1.0  0.50613  0.97441  0.34189  1.0000
  H   H155      1.0  0.55913  0.00722  0.48337  1.0000
  H   H156      1.0  0.57395  0.98102  0.49186  1.0000
  H   H157      1.0  0.56064  0.93892  0.47444  1.0000
  H   H158      1.0  0.57557  0.91294  0.48414  1.0000
  H   H159      1.0  0.44237  0.99327  0.47078  1.0000
  H   H160      1.0  0.40299  0.96190  0.46606  1.0000
  H   H161      1.0  0.32432  0.91843  0.43138  1.0000
  H   H162      1.0  0.36216  0.95242  0.43222  1.0000
  H   H163      1.0  0.69335  0.17089  0.43215  1.0000
  H   H164      1.0  0.73154  0.20438  0.43155  1.0000
  C   C231      1.0  0.60536  0.90825  0.37426  1.0000
  C   C232      1.0  0.30715  0.88064  0.32323  1.0000
  C   C233      1.0  0.45256  0.21840  0.37277  1.0000
  C   C234      1.0  0.74931  0.24244  0.32457  1.0000
  H   H165      1.0  0.61294  0.90940  0.44004  1.0000
  H   H166      1.0  0.30624  0.87202  0.38653  1.0000
  H   H167      1.0  0.75056  0.25102  0.38828  1.0000
  H   H168      1.0  0.44491  0.21734  0.43830  1.0000
  C   C235      1.0  0.27212  0.50032  0.34641  1.0000
  C   C236      1.0  0.25615  0.49306  0.41832  1.0000
  C   C237      1.0  0.23406  0.49093  0.40613  1.0000
  H   H169      1.0  0.22322  0.48717  0.45971  1.0000
  O   O1        1.0  0.26288  0.49072  0.50149  1.0000
  H   H170      1.0  0.25413  0.47401  0.51571  1.0000
  N   N19       1.0  0.29561  0.50610  0.35636  1.0000
  H   H171      1.0  0.30310  0.51872  0.40453  1.0000
  C   C238      1.0  0.59159  0.86661  0.34698  1.0000
  C   C239      1.0  0.59884  0.85787  0.41888  1.0000
  C   C240      1.0  0.60098  0.83792  0.40669  1.0000
  H   H172      1.0  0.60474  0.83082  0.46027  1.0000
  O   O2        1.0  0.60119  0.86692  0.50206  1.0000
  H   H173      1.0  0.61790  0.87487  0.51629  1.0000
  N   N20       1.0  0.58582  0.88432  0.35691  1.0000
  H   H174      1.0  0.57320  0.87918  0.40510  1.0000
  C   C241      1.0  0.22533  0.81980  0.34623  1.0000
  C   C242      1.0  0.23404  0.83573  0.41824  1.0000
  C   C243      1.0  0.25401  0.85782  0.40624  1.0000
  H   H175      1.0  0.26106  0.86866  0.45986  1.0000
  O   O3        1.0  0.22494  0.82897  0.50134  1.0000
  H   H176      1.0  0.21700  0.83774  0.51554  1.0000
  N   N21       1.0  0.20760  0.79632  0.35598  1.0000
  H   H177      1.0  0.21271  0.78879  0.40417  1.0000
  C   C244      1.0  0.79007  0.62462  0.34569  1.0000
  C   C245      1.0  0.80603  0.63163  0.41760  1.0000
  C   C246      1.0  0.82786  0.63316  0.40565  1.0000
  H   H178      1.0  0.83868  0.63676  0.45926  1.0000
  O   O4        1.0  0.79950  0.63430  0.50064  1.0000
  H   H179      1.0  0.80858  0.65102  0.51447  1.0000
  N   N22       1.0  0.76676  0.61944  0.35549  1.0000
  H   H180      1.0  0.75904  0.60693  0.40396  1.0000
  C   C247      1.0  0.46731  0.26027  0.34627  1.0000
  C   C248      1.0  0.46030  0.26919  0.41818  1.0000
  C   C249      1.0  0.45877  0.28950  0.40621  1.0000
  H   H181      1.0  0.45516  0.29671  0.45981  1.0000
  O   O5        1.0  0.45763  0.25997  0.50122  1.0000
  H   H182      1.0  0.44091  0.25233  0.51505  1.0000
  N   N23       1.0  0.47250  0.24214  0.35608  1.0000
  H   H183      1.0  0.48501  0.24692  0.40457  1.0000
  C   C250      1.0  0.83170  0.30185  0.34544  1.0000
  C   C251      1.0  0.82281  0.28592  0.41746  1.0000
  C   C252      1.0  0.80250  0.26408  0.40572  1.0000
  H   H184      1.0  0.79532  0.25329  0.45940  1.0000
  O   O6        1.0  0.83209  0.29249  0.50041  1.0000
  H   H185      1.0  0.83973  0.28341  0.51421  1.0000
  N   N24       1.0  0.84983  0.32517  0.35506  1.0000
  H   H186      1.0  0.84507  0.33290  0.40353  1.0000
