data_image0
_chemical_formula_structural       C2H2CNC2HNC2HNCNCNCNC18H12CNCNCNC18H12CNCHCNCHNC
_chemical_formula_sum              "C54 H30 N12"
_cell_length_a       29.3277
_cell_length_b       29.3277
_cell_length_c       14.9407
_cell_angle_alpha    90
_cell_angle_beta     90
_cell_angle_gamma    120

_space_group_name_H-M_alt    "P 1"
_space_group_IT_number       1

loop_
  _space_group_symop_operation_xyz
  'x, y, z'

loop_
  _atom_site_type_symbol
  _atom_site_label
  _atom_site_symmetry_multiplicity
  _atom_site_fract_x
  _atom_site_fract_y
  _atom_site_fract_z
  _atom_site_occupancy
  C   C1        1.0  0.02853  0.51476  0.25685  1.0000
  C   C2        1.0  0.02855  0.51477  0.41802  1.0000
  H   H1        1.0  0.04719  0.52409  0.19621  1.0000
  H   H2        1.0  0.04722  0.52411  0.47864  1.0000
  C   C3        1.0  0.05752  0.52926  0.33742  1.0000
  N   N1        1.0  0.51691  0.48804  0.25896  1.0000
  C   C4        1.0  0.49020  0.51476  0.25685  1.0000
  C   C5        1.0  0.47570  0.52926  0.33742  1.0000
  H   H3        1.0  0.48087  0.52409  0.19621  1.0000
  N   N2        1.0  0.51692  0.02987  0.25896  1.0000
  C   C6        1.0  0.49019  0.97643  0.25685  1.0000
  C   C7        1.0  0.47570  0.94744  0.33742  1.0000
  H   H4        1.0  0.48087  0.95777  0.19621  1.0000
  N   N3        1.0  0.97509  0.48804  0.25896  1.0000
  C   C8        1.0  0.36349  0.72302  0.33728  1.0000
  N   N4        1.0  0.38901  0.69500  0.33728  1.0000
  C   C9        1.0  0.36349  0.64146  0.33728  1.0000
  N   N5        1.0  0.30996  0.61595  0.33728  1.0000
  C   C10       1.0  0.28193  0.64146  0.33728  1.0000
  N   N6        1.0  0.30996  0.69500  0.33728  1.0000
  C   C11       1.0  0.39161  0.61335  0.33730  1.0000
  C   C12       1.0  0.44745  0.64020  0.33732  1.0000
  C   C13       1.0  0.47524  0.61257  0.33736  1.0000
  C   C14       1.0  0.44790  0.55706  0.33739  1.0000
  C   C15       1.0  0.39238  0.52972  0.33736  1.0000
  C   C16       1.0  0.36475  0.55751  0.33732  1.0000
  C   C17       1.0  0.39161  0.77925  0.33730  1.0000
  C   C18       1.0  0.44745  0.80824  0.33732  1.0000
  C   C19       1.0  0.47524  0.86366  0.33736  1.0000
  C   C20       1.0  0.44790  0.89184  0.33739  1.0000
  C   C21       1.0  0.39238  0.86366  0.33736  1.0000
  C   C22       1.0  0.36475  0.80824  0.33732  1.0000
  C   C23       1.0  0.22570  0.61335  0.33730  1.0000
  C   C24       1.0  0.19671  0.64020  0.33732  1.0000
  C   C25       1.0  0.14130  0.61257  0.33736  1.0000
  C   C26       1.0  0.11312  0.55706  0.33739  1.0000
  C   C27       1.0  0.14130  0.52972  0.33736  1.0000
  C   C28       1.0  0.19672  0.55751  0.33732  1.0000
  H   H5        1.0  0.51555  0.88325  0.33737  1.0000
  H   H6        1.0  0.46883  0.78937  0.33730  1.0000
  H   H7        1.0  0.37166  0.88325  0.33737  1.0000
  H   H8        1.0  0.32450  0.78937  0.33730  1.0000
  H   H9        1.0  0.21559  0.68045  0.33730  1.0000
  H   H10       1.0  0.12171  0.63329  0.33737  1.0000
  H   H11       1.0  0.21559  0.53612  0.33730  1.0000
  H   H12       1.0  0.12171  0.48941  0.33737  1.0000
  H   H13       1.0  0.32450  0.53612  0.33730  1.0000
  H   H14       1.0  0.37166  0.48941  0.33737  1.0000
  H   H15       1.0  0.51555  0.63329  0.33737  1.0000
  H   H16       1.0  0.46883  0.68045  0.33730  1.0000
  C   C29       1.0  0.64245  0.28094  0.33728  1.0000
  N   N7        1.0  0.61694  0.30897  0.33728  1.0000
  C   C30       1.0  0.64245  0.36251  0.33728  1.0000
  N   N8        1.0  0.69599  0.38801  0.33728  1.0000
  C   C31       1.0  0.72402  0.36251  0.33728  1.0000
  N   N9        1.0  0.69599  0.30897  0.33728  1.0000
  C   C32       1.0  0.61433  0.39062  0.33732  1.0000
  C   C33       1.0  0.55849  0.36377  0.33736  1.0000
  C   C34       1.0  0.53069  0.39140  0.33743  1.0000
  C   C35       1.0  0.55806  0.44690  0.33746  1.0000
  C   C36       1.0  0.61356  0.47426  0.33743  1.0000
  C   C37       1.0  0.64119  0.44647  0.33736  1.0000
  C   C38       1.0  0.61433  0.22470  0.33732  1.0000
  C   C39       1.0  0.55849  0.19571  0.33736  1.0000
  C   C40       1.0  0.53070  0.14029  0.33743  1.0000
  C   C41       1.0  0.55806  0.11216  0.33746  1.0000
  C   C42       1.0  0.61356  0.14029  0.33743  1.0000
  C   C43       1.0  0.64119  0.19571  0.33736  1.0000
  C   C44       1.0  0.78025  0.39062  0.33732  1.0000
  C   C45       1.0  0.80925  0.36377  0.33736  1.0000
  C   C46       1.0  0.86467  0.39140  0.33743  1.0000
  C   C47       1.0  0.89280  0.44690  0.33746  1.0000
  C   C48       1.0  0.86467  0.47426  0.33743  1.0000
  C   C49       1.0  0.80925  0.44647  0.33736  1.0000
  H   H17       1.0  0.49038  0.12070  0.33743  1.0000
  H   H18       1.0  0.53711  0.21459  0.33733  1.0000
  H   H19       1.0  0.63428  0.12070  0.33743  1.0000
  H   H20       1.0  0.68144  0.21459  0.33733  1.0000
  H   H21       1.0  0.79037  0.32352  0.33733  1.0000
  H   H22       1.0  0.88426  0.37068  0.33743  1.0000
  H   H23       1.0  0.79037  0.46785  0.33733  1.0000
  H   H24       1.0  0.88426  0.51458  0.33743  1.0000
  H   H25       1.0  0.68144  0.46785  0.33733  1.0000
  H   H26       1.0  0.63428  0.51458  0.33743  1.0000
  H   H27       1.0  0.49038  0.37068  0.33743  1.0000
  H   H28       1.0  0.53711  0.32352  0.33733  1.0000
  C   C50       1.0  0.49018  0.51477  0.41802  1.0000
  N   N10       1.0  0.51691  0.48805  0.41594  1.0000
  C   C51       1.0  0.53041  0.47454  0.33746  1.0000
  H   H29       1.0  0.48085  0.52411  0.47864  1.0000
  C   C52       1.0  0.49018  0.97641  0.41802  1.0000
  N   N11       1.0  0.51691  0.02985  0.41594  1.0000
  C   C53       1.0  0.53041  0.05686  0.33746  1.0000
  H   H30       1.0  0.48085  0.95773  0.47864  1.0000
  N   N12       1.0  0.97511  0.48805  0.41594  1.0000
  C   C54       1.0  0.94810  0.47454  0.33746  1.0000
