data_image0
_chemical_formula_structural       C18H17NC3H3NC2H3C3NC3NC5NC4NC35H25CNCHC2NCH
_chemical_formula_sum              "C78 H50 N8"
_cell_length_a       29.8855
_cell_length_b       29.8853
_cell_length_c       14.8426
_cell_angle_alpha    90
_cell_angle_beta     90
_cell_angle_gamma    89.9283

_space_group_name_H-M_alt    "P 1"
_space_group_IT_number       1

loop_
  _space_group_symop_operation_xyz
  'x, y, z'

loop_
  _atom_site_type_symbol
  _atom_site_label
  _atom_site_symmetry_multiplicity
  _atom_site_fract_x
  _atom_site_fract_y
  _atom_site_fract_z
  _atom_site_occupancy
  C   C1        1.0  0.91294  0.96180  0.34671  1.0000
  C   C2        1.0  0.01027  0.76836  0.26528  1.0000
  C   C3        1.0  0.01061  0.81548  0.26490  1.0000
  C   C4        1.0  0.03371  0.67045  0.28562  1.0000
  C   C5        1.0  0.03279  0.62333  0.28558  1.0000
  C   C6        1.0  0.00636  0.59923  0.34807  1.0000
  C   C7        1.0  0.77259  0.99765  0.26488  1.0000
  C   C8        1.0  0.81969  0.99782  0.26528  1.0000
  C   C9        1.0  0.62856  0.97213  0.29032  1.0000
  C   C10       1.0  0.67566  0.97223  0.29226  1.0000
  C   C11       1.0  0.00144  0.19385  0.26487  1.0000
  C   C12       1.0  0.00063  0.24096  0.26431  1.0000
  C   C13       1.0  0.97372  0.38486  0.28946  1.0000
  C   C14       1.0  0.97425  0.33776  0.29159  1.0000
  C   C15       1.0  0.19830  0.00702  0.26539  1.0000
  C   C16       1.0  0.24542  0.00686  0.26606  1.0000
  C   C17       1.0  0.34297  0.03131  0.28741  1.0000
  C   C18       1.0  0.39009  0.03088  0.28764  1.0000
  H   H1        1.0  0.40648  0.05101  0.24271  1.0000
  H   H2        1.0  0.32709  0.05198  0.24272  1.0000
  H   H3        1.0  0.26169  0.00725  0.20545  1.0000
  H   H4        1.0  0.18181  0.00826  0.20500  1.0000
  H   H5        1.0  0.99686  0.17693  0.20564  1.0000
  H   H6        1.0  0.99611  0.25684  0.20394  1.0000
  H   H7        1.0  0.91854  0.85386  0.34785  1.0000
  H   H8        1.0  0.83651  0.99309  0.20595  1.0000
  H   H9        1.0  0.75661  0.99340  0.20454  1.0000
  H   H10       1.0  0.69225  0.94823  0.25617  1.0000
  H   H11       1.0  0.61254  0.94817  0.25318  1.0000
  H   H12       1.0  0.01157  0.83205  0.20459  1.0000
  H   H13       1.0  0.01032  0.75219  0.20456  1.0000
  H   H14       1.0  0.05258  0.60675  0.24024  1.0000
  H   H15       1.0  0.05439  0.68612  0.24072  1.0000
  H   H16       1.0  0.95030  0.32096  0.25584  1.0000
  H   H17       1.0  0.94951  0.40068  0.25254  1.0000
  N   N1        1.0  0.01163  0.52904  0.26808  1.0000
  C   C19       1.0  0.01151  0.48374  0.25841  1.0000
  C   C20       1.0  0.00514  0.45745  0.33707  1.0000
  C   C21       1.0  0.02040  0.46513  0.16780  1.0000
  H   H18       1.0  0.02779  0.49161  0.11934  1.0000
  H   H19       1.0  0.99127  0.44684  0.14352  1.0000
  H   H20       1.0  0.04910  0.44255  0.17041  1.0000
  N   N2        1.0  0.48459  0.01075  0.27011  1.0000
  C   C22       1.0  0.52988  0.01082  0.26034  1.0000
  C   C23       1.0  0.54843  0.02042  0.16998  1.0000
  H   H21       1.0  0.52190  0.02805  0.12176  1.0000
  H   H22       1.0  0.56690  0.99153  0.14487  1.0000
  H   H23       1.0  0.57083  0.04918  0.17341  1.0000
  C   C24       1.0  0.12491  0.92181  0.34640  1.0000
  C   C25       1.0  0.09232  0.88909  0.34632  1.0000
  C   C26       1.0  0.05049  0.91004  0.34624  1.0000
  N   N3        1.0  0.05932  0.95456  0.34633  1.0000
  C   C27       1.0  0.10380  0.96357  0.34651  1.0000
  C   C28       1.0  0.12629  0.00554  0.34654  1.0000
  C   C29       1.0  0.10468  0.04791  0.34647  1.0000
  N   N4        1.0  0.06025  0.05653  0.34702  1.0000
  C   C30       1.0  0.05150  0.10093  0.34667  1.0000
  C   C31       1.0  0.09310  0.12220  0.34560  1.0000
  C   C32       1.0  0.12583  0.08956  0.34581  1.0000
  C   C33       1.0  0.00905  0.12240  0.34669  1.0000
  C   C34       1.0  0.96718  0.09967  0.34680  1.0000
  N   N5        1.0  0.95833  0.05515  0.34703  1.0000
  C   C35       1.0  0.91384  0.04612  0.34697  1.0000
  C   C36       1.0  0.89274  0.08788  0.34662  1.0000
  C   C37       1.0  0.92532  0.12059  0.34700  1.0000
  C   C38       1.0  0.89129  0.00416  0.34684  1.0000
  N   N6        1.0  0.95737  0.95322  0.34628  1.0000
  C   C39       1.0  0.96616  0.90883  0.34660  1.0000
  C   C40       1.0  0.92459  0.88751  0.34726  1.0000
  C   C41       1.0  0.89183  0.92011  0.34761  1.0000
  C   C42       1.0  0.00861  0.88737  0.34636  1.0000
  C   C43       1.0  0.00906  0.83963  0.34656  1.0000
  C   C44       1.0  0.00732  0.81567  0.42842  1.0000
  C   C45       1.0  0.00707  0.76856  0.42843  1.0000
  C   C46       1.0  0.00840  0.74377  0.34696  1.0000
  C   C47       1.0  0.00772  0.69570  0.34722  1.0000
  C   C48       1.0  0.98029  0.62438  0.40960  1.0000
  C   C49       1.0  0.98084  0.67150  0.40892  1.0000
  C   C50       1.0  0.84350  0.00445  0.34632  1.0000
  C   C51       1.0  0.81915  0.01107  0.42675  1.0000
  C   C52       1.0  0.77203  0.01105  0.42599  1.0000
  C   C53       1.0  0.74770  0.00419  0.34517  1.0000
  C   C54       1.0  0.69970  0.00382  0.34441  1.0000
  C   C55       1.0  0.67449  0.03491  0.39574  1.0000
  C   C56       1.0  0.62736  0.03473  0.39428  1.0000
  C   C57       1.0  0.60374  0.00382  0.34027  1.0000
  C   C58       1.0  0.00852  0.17019  0.34596  1.0000
  C   C59       1.0  0.00705  0.26599  0.34443  1.0000
  C   C60       1.0  0.01435  0.24181  0.42531  1.0000
  C   C61       1.0  0.01497  0.19469  0.42625  1.0000
  C   C62       1.0  0.00621  0.31397  0.34348  1.0000
  C   C63       1.0  0.03722  0.33944  0.39431  1.0000
  C   C64       1.0  0.03663  0.38656  0.39260  1.0000
  C   C65       1.0  0.00535  0.40994  0.33889  1.0000
  C   C66       1.0  0.17404  0.00524  0.34689  1.0000
  C   C67       1.0  0.19789  0.00335  0.42888  1.0000
  C   C68       1.0  0.24500  0.00326  0.42917  1.0000
  C   C69       1.0  0.26989  0.00499  0.34788  1.0000
  C   C70       1.0  0.31797  0.00482  0.34847  1.0000
  C   C71       1.0  0.41445  0.00447  0.34990  1.0000
  C   C72       1.0  0.38954  0.97796  0.41095  1.0000
  C   C73       1.0  0.34242  0.97803  0.41001  1.0000
  H   H24       1.0  0.40542  0.95715  0.45534  1.0000
  H   H25       1.0  0.32611  0.95727  0.45383  1.0000
  H   H26       1.0  0.26095  0.00281  0.49013  1.0000
  H   H27       1.0  0.18110  0.00228  0.48895  1.0000
  H   H28       1.0  0.15853  0.91552  0.34638  1.0000
  H   H29       1.0  0.09874  0.85549  0.34637  1.0000
  H   H30       1.0  0.03656  0.97723  0.34631  1.0000
  H   H31       1.0  0.98109  0.03248  0.34712  1.0000
  H   H32       1.0  0.15946  0.09574  0.34507  1.0000
  H   H33       1.0  0.09920  0.15583  0.34462  1.0000
  H   H34       1.0  0.01999  0.17836  0.48603  1.0000
  H   H35       1.0  0.01835  0.25830  0.48514  1.0000
  H   H36       1.0  0.91885  0.15417  0.34714  1.0000
  H   H37       1.0  0.85914  0.09421  0.34624  1.0000
  H   H38       1.0  0.85823  0.91387  0.34863  1.0000
  H   H39       1.0  0.83559  0.01573  0.48652  1.0000
  H   H40       1.0  0.75563  0.01512  0.48594  1.0000
  H   H41       1.0  0.61041  0.05811  0.43144  1.0000
  H   H42       1.0  0.69024  0.05878  0.43355  1.0000
  H   H43       1.0  0.96041  0.68800  0.45315  1.0000
  H   H44       1.0  0.95950  0.60869  0.45423  1.0000
  H   H45       1.0  0.00657  0.75251  0.48929  1.0000
  H   H46       1.0  0.00625  0.83238  0.48859  1.0000
  H   H47       1.0  0.06136  0.32388  0.43186  1.0000
  H   H48       1.0  0.06000  0.40369  0.42934  1.0000
  C   C74       1.0  0.00561  0.55141  0.34707  1.0000
  N   N7        1.0  0.00007  0.47943  0.41668  1.0000
  C   C75       1.0  0.99968  0.52466  0.42465  1.0000
  H   H49       1.0  0.99638  0.53840  0.48727  1.0000
  C   C76       1.0  0.46228  0.00410  0.34894  1.0000
  C   C77       1.0  0.55624  0.00392  0.33874  1.0000
  N   N8        1.0  0.53434  0.99821  0.41825  1.0000
  C   C78       1.0  0.48912  0.99773  0.42630  1.0000
  H   H50       1.0  0.47543  0.99386  0.48883  1.0000
