data_image0
_chemical_formula_structural       C5H2NHC3H2NHC3H2NHNCNCNC3O3NCNCNC3O3C3HOHNHC3HOHNHC3HOHNHC5H2NHC3H2NHC3H2NHNCNCNC3O3NCNCNC3O3C3HOHNHC3HOHNHC3HOHNHC5H2NHC3H2NHC3H2NHNCNCNC3O3NCNCNC3O3C3HOHNHC3HOHNHC3HOHNHC5H2NHC3H2NHC3H2NHNCNCNC3O3NCNCNC3O3C3HOHNHC3HOHNHC3HOHNH
_chemical_formula_sum              "C120 H72 N48 O36"
_cell_length_a       43.4556
_cell_length_b       43.4556
_cell_length_c       15.0545
_cell_angle_alpha    90
_cell_angle_beta     90
_cell_angle_gamma    120

_space_group_name_H-M_alt    "P 1"
_space_group_IT_number       1

loop_
  _space_group_symop_operation_xyz
  'x, y, z'

loop_
  _atom_site_type_symbol
  _atom_site_label
  _atom_site_symmetry_multiplicity
  _atom_site_fract_x
  _atom_site_fract_y
  _atom_site_fract_z
  _atom_site_occupancy
  C   C1        1.0  0.12854  0.32129  0.24198  1.0000
  C   C2        1.0  0.36588  0.17446  0.41759  1.0000
  C   C3        1.0  0.23194  0.26850  0.29575  1.0000
  C   C4        1.0  0.26835  0.27980  0.28353  1.0000
  C   C5        1.0  0.28376  0.26081  0.31938  1.0000
  H   H1        1.0  0.30938  0.26909  0.30198  1.0000
  H   H2        1.0  0.28395  0.30164  0.24532  1.0000
  N   N1        1.0  0.21875  0.28872  0.26120  1.0000
  H   H3        1.0  0.23640  0.31248  0.24119  1.0000
  C   C6        1.0  0.22700  0.46255  0.29548  1.0000
  C   C7        1.0  0.21571  0.48768  0.28324  1.0000
  C   C8        1.0  0.23470  0.02208  0.31907  1.0000
  H   H4        1.0  0.22642  0.03941  0.30167  1.0000
  H   H5        1.0  0.19385  0.48142  0.24505  1.0000
  N   N2        1.0  0.20676  0.42913  0.26099  1.0000
  H   H6        1.0  0.18300  0.42302  0.24102  1.0000
  C   C9        1.0  0.03293  0.26352  0.29561  1.0000
  C   C10       1.0  0.00781  0.22711  0.28337  1.0000
  C   C11       1.0  0.47340  0.21171  0.31917  1.0000
  H   H7        1.0  0.45607  0.18609  0.30174  1.0000
  H   H8        1.0  0.01406  0.21152  0.24514  1.0000
  N   N3        1.0  0.06635  0.27672  0.26111  1.0000
  H   H9        1.0  0.07247  0.25906  0.24114  1.0000
  N   N4        1.0  0.15392  0.35618  0.24272  1.0000
  C   C12       1.0  0.18913  0.36694  0.24194  1.0000
  N   N5        1.0  0.19863  0.34155  0.24275  1.0000
  C   C13       1.0  0.17419  0.30635  0.24200  1.0000
  N   N6        1.0  0.13930  0.29685  0.24280  1.0000
  C   C14       1.0  0.21513  0.40287  0.25285  1.0000
  C   C15       1.0  0.18412  0.28035  0.25303  1.0000
  C   C16       1.0  0.09260  0.31134  0.25293  1.0000
  O   O1        1.0  0.15739  0.24610  0.25564  1.0000
  O   O2        1.0  0.08507  0.33807  0.25546  1.0000
  O   O3        1.0  0.24938  0.41039  0.25540  1.0000
  N   N7        1.0  0.34002  0.13976  0.41683  1.0000
  C   C17       1.0  0.30495  0.12960  0.41754  1.0000
  N   N8        1.0  0.29610  0.15545  0.41691  1.0000
  C   C18       1.0  0.32101  0.19052  0.41766  1.0000
  N   N9        1.0  0.35572  0.19937  0.41694  1.0000
  C   C19       1.0  0.27846  0.09373  0.40812  1.0000
  C   C20       1.0  0.31165  0.21702  0.40833  1.0000
  C   C21       1.0  0.40174  0.18382  0.40815  1.0000
  O   O4        1.0  0.33877  0.25109  0.40615  1.0000
  O   O5        1.0  0.40867  0.15669  0.40590  1.0000
  O   O6        1.0  0.24439  0.08678  0.40592  1.0000
  C   C22       1.0  0.26380  0.22987  0.37152  1.0000
  C   C23       1.0  0.22741  0.21895  0.38588  1.0000
  C   C24       1.0  0.21203  0.23784  0.34865  1.0000
  H   H10       1.0  0.18637  0.22974  0.36534  1.0000
  O   O7        1.0  0.20592  0.19004  0.43648  1.0000
  H   H11       1.0  0.21051  0.19809  0.49862  1.0000
  N   N10       1.0  0.27713  0.20925  0.40275  1.0000
  H   H12       1.0  0.25956  0.18537  0.42170  1.0000
  C   C25       1.0  0.26563  0.03304  0.37122  1.0000
  C   C26       1.0  0.27655  0.00757  0.38557  1.0000
  C   C27       1.0  0.25768  0.47331  0.34831  1.0000
  H   H13       1.0  0.26575  0.45574  0.36510  1.0000
  O   O8        1.0  0.30545  0.01499  0.43620  1.0000
  H   H14       1.0  0.29739  0.01152  0.49834  1.0000
  N   N11       1.0  0.28625  0.06699  0.40249  1.0000
  H   H15       1.0  0.31013  0.07330  0.42146  1.0000
  C   C28       1.0  0.46244  0.23167  0.37133  1.0000
  C   C29       1.0  0.48791  0.26805  0.38573  1.0000
  C   C30       1.0  0.02217  0.28344  0.34846  1.0000
  H   H16       1.0  0.03976  0.30907  0.36527  1.0000
  O   O9        1.0  0.48051  0.28953  0.43639  1.0000
  H   H17       1.0  0.48396  0.28492  0.49852  1.0000
  N   N12       1.0  0.42849  0.21834  0.40259  1.0000
  H   H18       1.0  0.42218  0.23591  0.42158  1.0000
  C   C31       1.0  0.12854  0.82130  0.24198  1.0000
  C   C32       1.0  0.36588  0.67446  0.41759  1.0000
  C   C33       1.0  0.23194  0.76850  0.29575  1.0000
  C   C34       1.0  0.26835  0.77979  0.28353  1.0000
  C   C35       1.0  0.28376  0.76081  0.31938  1.0000
  H   H19       1.0  0.30938  0.76909  0.30198  1.0000
  H   H20       1.0  0.28395  0.80164  0.24532  1.0000
  N   N13       1.0  0.21875  0.78872  0.26120  1.0000
  H   H21       1.0  0.23640  0.81248  0.24119  1.0000
  C   C36       1.0  0.22700  0.96255  0.29548  1.0000
  C   C37       1.0  0.21571  0.98768  0.28324  1.0000
  C   C38       1.0  0.23470  0.52207  0.31907  1.0000
  H   H22       1.0  0.22642  0.53941  0.30167  1.0000
  H   H23       1.0  0.19385  0.98142  0.24505  1.0000
  N   N14       1.0  0.20676  0.92913  0.26099  1.0000
  H   H24       1.0  0.18300  0.92302  0.24102  1.0000
  C   C39       1.0  0.03293  0.76352  0.29561  1.0000
  C   C40       1.0  0.00781  0.72711  0.28337  1.0000
  C   C41       1.0  0.47341  0.71171  0.31917  1.0000
  H   H25       1.0  0.45606  0.68609  0.30174  1.0000
  H   H26       1.0  0.01406  0.71152  0.24514  1.0000
  N   N15       1.0  0.06635  0.77671  0.26111  1.0000
  H   H27       1.0  0.07247  0.75907  0.24114  1.0000
  N   N16       1.0  0.15393  0.85618  0.24272  1.0000
  C   C42       1.0  0.18913  0.86693  0.24194  1.0000
  N   N17       1.0  0.19863  0.84156  0.24275  1.0000
  C   C43       1.0  0.17419  0.80635  0.24200  1.0000
  N   N18       1.0  0.13930  0.79685  0.24280  1.0000
  C   C44       1.0  0.21513  0.90288  0.25285  1.0000
  C   C45       1.0  0.18412  0.78035  0.25303  1.0000
  C   C46       1.0  0.09260  0.81134  0.25293  1.0000
  O   O10       1.0  0.15739  0.74610  0.25564  1.0000
  O   O11       1.0  0.08507  0.83807  0.25546  1.0000
  O   O12       1.0  0.24938  0.91039  0.25540  1.0000
  N   N19       1.0  0.34002  0.63976  0.41683  1.0000
  C   C47       1.0  0.30495  0.62960  0.41754  1.0000
  N   N20       1.0  0.29610  0.65545  0.41691  1.0000
  C   C48       1.0  0.32101  0.69052  0.41766  1.0000
  N   N21       1.0  0.35572  0.69937  0.41694  1.0000
  C   C49       1.0  0.27846  0.59373  0.40812  1.0000
  C   C50       1.0  0.31165  0.71702  0.40833  1.0000
  C   C51       1.0  0.40174  0.68382  0.40815  1.0000
  O   O13       1.0  0.33877  0.75109  0.40615  1.0000
  O   O14       1.0  0.40867  0.65669  0.40590  1.0000
  O   O15       1.0  0.24439  0.58678  0.40592  1.0000
  C   C52       1.0  0.26380  0.72987  0.37152  1.0000
  C   C53       1.0  0.22741  0.71895  0.38588  1.0000
  C   C54       1.0  0.21203  0.73784  0.34865  1.0000
  H   H28       1.0  0.18637  0.72974  0.36534  1.0000
  O   O16       1.0  0.20592  0.69004  0.43648  1.0000
  H   H29       1.0  0.21051  0.69809  0.49862  1.0000
  N   N22       1.0  0.27713  0.70925  0.40275  1.0000
  H   H30       1.0  0.25956  0.68537  0.42170  1.0000
  C   C55       1.0  0.26563  0.53304  0.37122  1.0000
  C   C56       1.0  0.27655  0.50757  0.38557  1.0000
  C   C57       1.0  0.25768  0.97332  0.34831  1.0000
  H   H31       1.0  0.26574  0.95574  0.36510  1.0000
  O   O17       1.0  0.30545  0.51499  0.43620  1.0000
  H   H32       1.0  0.29739  0.51152  0.49834  1.0000
  N   N23       1.0  0.28624  0.56699  0.40249  1.0000
  H   H33       1.0  0.31013  0.57330  0.42146  1.0000
  C   C58       1.0  0.46244  0.73167  0.37133  1.0000
  C   C59       1.0  0.48791  0.76805  0.38573  1.0000
  C   C60       1.0  0.02217  0.78344  0.34846  1.0000
  H   H34       1.0  0.03976  0.80908  0.36527  1.0000
  O   O18       1.0  0.48050  0.78953  0.43639  1.0000
  H   H35       1.0  0.48396  0.78492  0.49852  1.0000
  N   N24       1.0  0.42849  0.71833  0.40259  1.0000
  H   H36       1.0  0.42219  0.73591  0.42158  1.0000
  C   C61       1.0  0.62854  0.32129  0.24198  1.0000
  C   C62       1.0  0.86587  0.17446  0.41759  1.0000
  C   C63       1.0  0.73194  0.26850  0.29575  1.0000
  C   C64       1.0  0.76835  0.27980  0.28353  1.0000
  C   C65       1.0  0.78376  0.26081  0.31938  1.0000
  H   H37       1.0  0.80938  0.26909  0.30198  1.0000
  H   H38       1.0  0.78395  0.30164  0.24532  1.0000
  N   N25       1.0  0.71875  0.28872  0.26120  1.0000
  H   H39       1.0  0.73640  0.31248  0.24119  1.0000
  C   C66       1.0  0.72700  0.46255  0.29548  1.0000
  C   C67       1.0  0.71571  0.48768  0.28324  1.0000
  C   C68       1.0  0.73470  0.02208  0.31907  1.0000
  H   H40       1.0  0.72642  0.03941  0.30167  1.0000
  H   H41       1.0  0.69385  0.48142  0.24505  1.0000
  N   N26       1.0  0.70676  0.42913  0.26099  1.0000
  H   H42       1.0  0.68300  0.42302  0.24102  1.0000
  C   C69       1.0  0.53293  0.26352  0.29561  1.0000
  C   C70       1.0  0.50781  0.22711  0.28337  1.0000
  C   C71       1.0  0.97340  0.21171  0.31917  1.0000
  H   H43       1.0  0.95607  0.18609  0.30174  1.0000
  H   H44       1.0  0.51406  0.21152  0.24514  1.0000
  N   N27       1.0  0.56635  0.27672  0.26111  1.0000
  H   H45       1.0  0.57247  0.25906  0.24114  1.0000
  N   N28       1.0  0.65392  0.35618  0.24272  1.0000
  C   C72       1.0  0.68913  0.36694  0.24194  1.0000
  N   N29       1.0  0.69863  0.34155  0.24275  1.0000
  C   C73       1.0  0.67419  0.30635  0.24200  1.0000
  N   N30       1.0  0.63931  0.29685  0.24280  1.0000
  C   C74       1.0  0.71513  0.40287  0.25285  1.0000
  C   C75       1.0  0.68413  0.28035  0.25303  1.0000
  C   C76       1.0  0.59260  0.31134  0.25293  1.0000
  O   O19       1.0  0.65739  0.24610  0.25564  1.0000
  O   O20       1.0  0.58507  0.33807  0.25546  1.0000
  O   O21       1.0  0.74938  0.41039  0.25540  1.0000
  N   N31       1.0  0.84002  0.13976  0.41683  1.0000
  C   C77       1.0  0.80495  0.12960  0.41754  1.0000
  N   N32       1.0  0.79610  0.15545  0.41691  1.0000
  C   C78       1.0  0.82101  0.19052  0.41766  1.0000
  N   N33       1.0  0.85572  0.19937  0.41694  1.0000
  C   C79       1.0  0.77846  0.09373  0.40812  1.0000
  C   C80       1.0  0.81165  0.21702  0.40833  1.0000
  C   C81       1.0  0.90174  0.18382  0.40815  1.0000
  O   O22       1.0  0.83877  0.25109  0.40615  1.0000
  O   O23       1.0  0.90867  0.15669  0.40590  1.0000
  O   O24       1.0  0.74439  0.08678  0.40592  1.0000
  C   C82       1.0  0.76380  0.22987  0.37152  1.0000
  C   C83       1.0  0.72741  0.21895  0.38588  1.0000
  C   C84       1.0  0.71203  0.23784  0.34865  1.0000
  H   H46       1.0  0.68637  0.22974  0.36534  1.0000
  O   O25       1.0  0.70592  0.19004  0.43648  1.0000
  H   H47       1.0  0.71051  0.19809  0.49862  1.0000
  N   N34       1.0  0.77713  0.20925  0.40275  1.0000
  H   H48       1.0  0.75955  0.18537  0.42170  1.0000
  C   C85       1.0  0.76563  0.03304  0.37122  1.0000
  C   C86       1.0  0.77655  0.00757  0.38557  1.0000
  C   C87       1.0  0.75768  0.47331  0.34831  1.0000
  H   H49       1.0  0.76575  0.45574  0.36510  1.0000
  O   O26       1.0  0.80545  0.01499  0.43620  1.0000
  H   H50       1.0  0.79739  0.01152  0.49834  1.0000
  N   N35       1.0  0.78624  0.06699  0.40249  1.0000
  H   H51       1.0  0.81013  0.07330  0.42146  1.0000
  C   C88       1.0  0.96244  0.23167  0.37133  1.0000
  C   C89       1.0  0.98791  0.26805  0.38573  1.0000
  C   C90       1.0  0.52217  0.28344  0.34846  1.0000
  H   H52       1.0  0.53976  0.30907  0.36527  1.0000
  O   O27       1.0  0.98050  0.28953  0.43639  1.0000
  H   H53       1.0  0.98396  0.28492  0.49852  1.0000
  N   N36       1.0  0.92849  0.21834  0.40259  1.0000
  H   H54       1.0  0.92219  0.23591  0.42158  1.0000
  C   C91       1.0  0.62854  0.82130  0.24198  1.0000
  C   C92       1.0  0.86587  0.67446  0.41759  1.0000
  C   C93       1.0  0.73194  0.76850  0.29575  1.0000
  C   C94       1.0  0.76835  0.77979  0.28353  1.0000
  C   C95       1.0  0.78376  0.76081  0.31938  1.0000
  H   H55       1.0  0.80938  0.76909  0.30198  1.0000
  H   H56       1.0  0.78395  0.80164  0.24532  1.0000
  N   N37       1.0  0.71875  0.78872  0.26120  1.0000
  H   H57       1.0  0.73640  0.81248  0.24119  1.0000
  C   C96       1.0  0.72700  0.96255  0.29548  1.0000
  C   C97       1.0  0.71571  0.98768  0.28324  1.0000
  C   C98       1.0  0.73470  0.52207  0.31907  1.0000
  H   H58       1.0  0.72642  0.53941  0.30167  1.0000
  H   H59       1.0  0.69385  0.98142  0.24505  1.0000
  N   N38       1.0  0.70676  0.92913  0.26099  1.0000
  H   H60       1.0  0.68300  0.92302  0.24102  1.0000
  C   C99       1.0  0.53293  0.76352  0.29561  1.0000
  C   C100      1.0  0.50781  0.72711  0.28337  1.0000
  C   C101      1.0  0.97341  0.71171  0.31917  1.0000
  H   H61       1.0  0.95607  0.68609  0.30174  1.0000
  H   H62       1.0  0.51406  0.71152  0.24514  1.0000
  N   N39       1.0  0.56635  0.77671  0.26111  1.0000
  H   H63       1.0  0.57247  0.75907  0.24114  1.0000
  N   N40       1.0  0.65392  0.85618  0.24272  1.0000
  C   C102      1.0  0.68913  0.86693  0.24194  1.0000
  N   N41       1.0  0.69863  0.84156  0.24275  1.0000
  C   C103      1.0  0.67419  0.80635  0.24200  1.0000
  N   N42       1.0  0.63930  0.79685  0.24280  1.0000
  C   C104      1.0  0.71513  0.90288  0.25285  1.0000
  C   C105      1.0  0.68413  0.78035  0.25303  1.0000
  C   C106      1.0  0.59260  0.81134  0.25293  1.0000
  O   O28       1.0  0.65739  0.74610  0.25564  1.0000
  O   O29       1.0  0.58507  0.83807  0.25546  1.0000
  O   O30       1.0  0.74938  0.91039  0.25540  1.0000
  N   N43       1.0  0.84002  0.63976  0.41683  1.0000
  C   C107      1.0  0.80495  0.62960  0.41754  1.0000
  N   N44       1.0  0.79610  0.65545  0.41691  1.0000
  C   C108      1.0  0.82101  0.69052  0.41766  1.0000
  N   N45       1.0  0.85572  0.69937  0.41694  1.0000
  C   C109      1.0  0.77846  0.59373  0.40812  1.0000
  C   C110      1.0  0.81165  0.71702  0.40833  1.0000
  C   C111      1.0  0.90174  0.68382  0.40815  1.0000
  O   O31       1.0  0.83877  0.75109  0.40615  1.0000
  O   O32       1.0  0.90867  0.65669  0.40590  1.0000
  O   O33       1.0  0.74439  0.58678  0.40592  1.0000
  C   C112      1.0  0.76380  0.72987  0.37152  1.0000
  C   C113      1.0  0.72741  0.71895  0.38588  1.0000
  C   C114      1.0  0.71203  0.73784  0.34865  1.0000
  H   H64       1.0  0.68637  0.72974  0.36534  1.0000
  O   O34       1.0  0.70592  0.69004  0.43648  1.0000
  H   H65       1.0  0.71051  0.69809  0.49862  1.0000
  N   N46       1.0  0.77713  0.70925  0.40275  1.0000
  H   H66       1.0  0.75955  0.68537  0.42170  1.0000
  C   C115      1.0  0.76563  0.53304  0.37122  1.0000
  C   C116      1.0  0.77655  0.50757  0.38557  1.0000
  C   C117      1.0  0.75768  0.97332  0.34831  1.0000
  H   H67       1.0  0.76575  0.95574  0.36510  1.0000
  O   O35       1.0  0.80545  0.51499  0.43620  1.0000
  H   H68       1.0  0.79739  0.51152  0.49834  1.0000
  N   N47       1.0  0.78624  0.56699  0.40249  1.0000
  H   H69       1.0  0.81013  0.57330  0.42146  1.0000
  C   C118      1.0  0.96244  0.73167  0.37133  1.0000
  C   C119      1.0  0.98791  0.76805  0.38573  1.0000
  C   C120      1.0  0.52217  0.78344  0.34846  1.0000
  H   H70       1.0  0.53976  0.80908  0.36527  1.0000
  O   O36       1.0  0.98050  0.78953  0.43639  1.0000
  H   H71       1.0  0.98396  0.78492  0.49852  1.0000
  N   N48       1.0  0.92849  0.71833  0.40259  1.0000
  H   H72       1.0  0.92219  0.73591  0.42158  1.0000
