data_image0
_chemical_formula_structural       C2HC4HNH2NO2NHC2HC4HNH2NO2NHC2HC4HNH2NO2NHCNCNCNC18H12C3O3CNCNCNC18H12C3O3C6H2NH2NO2NHC6H2NH2NO2NHC6H2NH2NO2NH
_chemical_formula_sum              "C84 H54 N24 O18"
_cell_length_a       44.1028
_cell_length_b       44.1022
_cell_length_c       15.0381
_cell_angle_alpha    90
_cell_angle_beta     90
_cell_angle_gamma    120

_space_group_name_H-M_alt    "P 1"
_space_group_IT_number       1

loop_
  _space_group_symop_operation_xyz
  'x, y, z'

loop_
  _atom_site_type_symbol
  _atom_site_label
  _atom_site_symmetry_multiplicity
  _atom_site_fract_x
  _atom_site_fract_y
  _atom_site_fract_z
  _atom_site_occupancy
  C   C1        1.0  0.48514  0.52321  0.28424  1.0000
  C   C2        1.0  0.46603  0.54102  0.28998  1.0000
  H   H1        1.0  0.46330  0.55282  0.23431  1.0000
  C   C3        1.0  0.50720  0.48852  0.36246  1.0000
  C   C4        1.0  0.54073  0.44811  0.35002  1.0000
  C   C5        1.0  0.50552  0.43360  0.32215  1.0000
  C   C6        1.0  0.48917  0.45406  0.32842  1.0000
  H   H2        1.0  0.46390  0.44368  0.30649  1.0000
  N   N1        1.0  0.49901  0.52199  0.20431  1.0000
  H   H3        1.0  0.49591  0.53300  0.15165  1.0000
  H   H4        1.0  0.51298  0.51074  0.19725  1.0000
  N   N2        1.0  0.48797  0.39947  0.28548  1.0000
  O   O1        1.0  0.47925  0.39982  0.20609  1.0000
  O   O2        1.0  0.46104  0.37946  0.32944  1.0000
  N   N3        1.0  0.55724  0.42895  0.34365  1.0000
  H   H5        1.0  0.54490  0.40546  0.36881  1.0000
  C   C7        1.0  0.47360  0.96128  0.28424  1.0000
  C   C8        1.0  0.45580  0.92437  0.28998  1.0000
  H   H6        1.0  0.44399  0.90983  0.23431  1.0000
  C   C9        1.0  0.50831  0.01804  0.36246  1.0000
  C   C10       1.0  0.54872  0.09198  0.35004  1.0000
  C   C11       1.0  0.56322  0.07127  0.32214  1.0000
  C   C12       1.0  0.54275  0.03446  0.32840  1.0000
  H   H7        1.0  0.55314  0.01958  0.30646  1.0000
  N   N4        1.0  0.47483  0.97637  0.20431  1.0000
  H   H8        1.0  0.46382  0.96227  0.15165  1.0000
  H   H9        1.0  0.48608  0.00160  0.19726  1.0000
  N   N5        1.0  0.59735  0.08786  0.28546  1.0000
  O   O3        1.0  0.59699  0.07879  0.20607  1.0000
  O   O4        1.0  0.61736  0.08093  0.32940  1.0000
  N   N6        1.0  0.56787  0.12765  0.34367  1.0000
  H   H10       1.0  0.59137  0.13880  0.36882  1.0000
  C   C13       1.0  0.03552  0.51169  0.28426  1.0000
  C   C14       1.0  0.07244  0.53079  0.28995  1.0000
  H   H11       1.0  0.08696  0.53351  0.23427  1.0000
  C   C15       1.0  0.97879  0.48967  0.36254  1.0000
  C   C16       1.0  0.90485  0.45614  0.35010  1.0000
  C   C17       1.0  0.92555  0.49135  0.32226  1.0000
  C   C18       1.0  0.96236  0.50770  0.32854  1.0000
  H   H12       1.0  0.97725  0.53298  0.30663  1.0000
  N   N7        1.0  0.02042  0.49782  0.20435  1.0000
  H   H13       1.0  0.03451  0.50091  0.15167  1.0000
  H   H14       1.0  0.99519  0.48385  0.19733  1.0000
  N   N8        1.0  0.90897  0.50890  0.28561  1.0000
  O   O5        1.0  0.91805  0.51764  0.20623  1.0000
  O   O6        1.0  0.91589  0.53583  0.32960  1.0000
  N   N9        1.0  0.86918  0.43963  0.34367  1.0000
  H   H15       1.0  0.85802  0.45195  0.36891  1.0000
  C   C19       1.0  0.29557  0.65082  0.31345  1.0000
  N   N10       1.0  0.31075  0.63054  0.31356  1.0000
  C   C20       1.0  0.34601  0.64410  0.31348  1.0000
  N   N11       1.0  0.36629  0.67956  0.31358  1.0000
  C   C21       1.0  0.35272  0.70126  0.31346  1.0000
  N   N12       1.0  0.31726  0.68608  0.31356  1.0000
  C   C22       1.0  0.36107  0.62211  0.31465  1.0000
  C   C23       1.0  0.34025  0.58541  0.30294  1.0000
  C   C24       1.0  0.35523  0.56377  0.30414  1.0000
  C   C25       1.0  0.39148  0.57798  0.31895  1.0000
  C   C26       1.0  0.41239  0.61460  0.33021  1.0000
  C   C27       1.0  0.39748  0.63626  0.32779  1.0000
  C   C28       1.0  0.25852  0.63575  0.31461  1.0000
  C   C29       1.0  0.23624  0.59934  0.32773  1.0000
  C   C30       1.0  0.19968  0.58442  0.33017  1.0000
  C   C31       1.0  0.18397  0.60533  0.31889  1.0000
  C   C32       1.0  0.20601  0.64159  0.30405  1.0000
  C   C33       1.0  0.24263  0.65657  0.30288  1.0000
  C   C34       1.0  0.37471  0.73831  0.31465  1.0000
  C   C35       1.0  0.36057  0.76058  0.32779  1.0000
  C   C36       1.0  0.38222  0.79715  0.33023  1.0000
  C   C37       1.0  0.41884  0.81285  0.31897  1.0000
  C   C38       1.0  0.43305  0.79081  0.30412  1.0000
  C   C39       1.0  0.41141  0.75419  0.30296  1.0000
  H   H16       1.0  0.18465  0.55790  0.33826  1.0000
  H   H17       1.0  0.24632  0.58308  0.33622  1.0000
  H   H18       1.0  0.19565  0.65761  0.29548  1.0000
  H   H19       1.0  0.25752  0.68298  0.29254  1.0000
  H   H20       1.0  0.33423  0.75050  0.33626  1.0000
  H   H21       1.0  0.37072  0.81217  0.33833  1.0000
  H   H22       1.0  0.42293  0.73930  0.29258  1.0000
  H   H23       1.0  0.45944  0.80117  0.29558  1.0000
  H   H24       1.0  0.41374  0.66260  0.33628  1.0000
  H   H25       1.0  0.43892  0.62610  0.33834  1.0000
  H   H26       1.0  0.33920  0.53738  0.29557  1.0000
  H   H27       1.0  0.31384  0.57389  0.29260  1.0000
  C   C40       1.0  0.14697  0.59007  0.31900  1.0000
  C   C41       1.0  0.44058  0.84985  0.31911  1.0000
  C   C42       1.0  0.40674  0.55624  0.31910  1.0000
  O   O7        1.0  0.39251  0.52779  0.26521  1.0000
  O   O8        1.0  0.46903  0.86408  0.26519  1.0000
  O   O9        1.0  0.13275  0.60430  0.26512  1.0000
  C   C43       1.0  0.70068  0.34693  0.27144  1.0000
  N   N13       1.0  0.68519  0.36693  0.27175  1.0000
  C   C44       1.0  0.64990  0.35311  0.27138  1.0000
  N   N14       1.0  0.62989  0.31762  0.27172  1.0000
  C   C45       1.0  0.64372  0.29615  0.27141  1.0000
  N   N15       1.0  0.67921  0.31163  0.27177  1.0000
  C   C46       1.0  0.63451  0.37480  0.27492  1.0000
  C   C47       1.0  0.65534  0.41160  0.28448  1.0000
  C   C48       1.0  0.64000  0.43282  0.29159  1.0000
  C   C49       1.0  0.60323  0.41797  0.29035  1.0000
  C   C50       1.0  0.58236  0.38137  0.27858  1.0000
  C   C51       1.0  0.59772  0.36021  0.27102  1.0000
  C   C52       1.0  0.73776  0.36232  0.27500  1.0000
  C   C53       1.0  0.75995  0.39911  0.27109  1.0000
  C   C54       1.0  0.79647  0.41447  0.27863  1.0000
  C   C55       1.0  0.81221  0.39361  0.29045  1.0000
  C   C56       1.0  0.79028  0.35684  0.29170  1.0000
  C   C57       1.0  0.75373  0.34149  0.28458  1.0000
  C   C58       1.0  0.62203  0.25907  0.27495  1.0000
  C   C59       1.0  0.63662  0.23687  0.27104  1.0000
  C   C60       1.0  0.61546  0.20035  0.27858  1.0000
  C   C61       1.0  0.57885  0.18462  0.29037  1.0000
  C   C62       1.0  0.56401  0.20655  0.29161  1.0000
  C   C63       1.0  0.58523  0.24310  0.28452  1.0000
  H   H28       1.0  0.81141  0.44114  0.27428  1.0000
  H   H29       1.0  0.74984  0.41537  0.26316  1.0000
  H   H30       1.0  0.80063  0.34080  0.30049  1.0000
  H   H31       1.0  0.73892  0.31479  0.28801  1.0000
  H   H32       1.0  0.66299  0.24698  0.26312  1.0000
  H   H33       1.0  0.62718  0.18541  0.27421  1.0000
  H   H34       1.0  0.57333  0.25791  0.28791  1.0000
  H   H35       1.0  0.53763  0.19620  0.30036  1.0000
  H   H36       1.0  0.58146  0.33384  0.26310  1.0000
  H   H37       1.0  0.55570  0.36964  0.27418  1.0000
  H   H38       1.0  0.65604  0.45920  0.30033  1.0000
  H   H39       1.0  0.68204  0.42350  0.28788  1.0000
  C   C64       1.0  0.84902  0.40878  0.30024  1.0000
  C   C65       1.0  0.55721  0.14780  0.30013  1.0000
  C   C66       1.0  0.58806  0.43961  0.30011  1.0000
  O   O10       1.0  0.60501  0.47173  0.26187  1.0000
  O   O11       1.0  0.52509  0.13263  0.26191  1.0000
  O   O12       1.0  0.86420  0.39184  0.26196  1.0000
  C   C67       1.0  0.45126  0.54382  0.37078  1.0000
  C   C68       1.0  0.45641  0.52919  0.44916  1.0000
  C   C69       1.0  0.47507  0.51091  0.44404  1.0000
  C   C70       1.0  0.48935  0.50776  0.36283  1.0000
  C   C71       1.0  0.54229  0.50299  0.39275  1.0000
  C   C72       1.0  0.55834  0.48220  0.38647  1.0000
  H   H40       1.0  0.58351  0.49210  0.40859  1.0000
  H   H41       1.0  0.47817  0.49979  0.50062  1.0000
  N   N16       1.0  0.56116  0.53601  0.42608  1.0000
  H   H42       1.0  0.55151  0.55151  0.43040  1.0000
  H   H43       1.0  0.58524  0.54538  0.44581  1.0000
  N   N17       1.0  0.44185  0.53228  0.53019  1.0000
  O   O13       1.0  0.46516  0.54812  0.58787  1.0000
  O   O14       1.0  0.41985  0.50277  0.56047  1.0000
  N   N18       1.0  0.43408  0.56243  0.37301  1.0000
  H   H44       1.0  0.44070  0.57980  0.42015  1.0000
  C   C73       1.0  0.45300  0.90679  0.37078  1.0000
  C   C74       1.0  0.46764  0.92658  0.44916  1.0000
  C   C75       1.0  0.48592  0.96352  0.44404  1.0000
  C   C76       1.0  0.48906  0.98095  0.36283  1.0000
  C   C77       1.0  0.49384  0.03866  0.39277  1.0000
  C   C78       1.0  0.51463  0.07550  0.38650  1.0000
  H   H45       1.0  0.50473  0.09076  0.40863  1.0000
  H   H46       1.0  0.49704  0.97774  0.50061  1.0000
  N   N19       1.0  0.46082  0.02451  0.42613  1.0000
  H   H47       1.0  0.44532  0.99936  0.43044  1.0000
  H   H48       1.0  0.45145  0.03922  0.44587  1.0000
  N   N20       1.0  0.46455  0.90892  0.53018  1.0000
  O   O15       1.0  0.44871  0.91640  0.58787  1.0000
  O   O16       1.0  0.49405  0.91643  0.56045  1.0000
  N   N21       1.0  0.43439  0.87100  0.37301  1.0000
  H   H49       1.0  0.41702  0.86026  0.42015  1.0000
  C   C79       1.0  0.09003  0.54557  0.37073  1.0000
  C   C80       1.0  0.07026  0.54044  0.44914  1.0000
  C   C81       1.0  0.03332  0.52179  0.44406  1.0000
  C   C82       1.0  0.01588  0.50750  0.36288  1.0000
  C   C83       1.0  0.95816  0.45457  0.39282  1.0000
  C   C84       1.0  0.92133  0.43852  0.38654  1.0000
  H   H50       1.0  0.90606  0.41335  0.40863  1.0000
  H   H51       1.0  0.01912  0.51871  0.50065  1.0000
  N   N22       1.0  0.97232  0.43570  0.42614  1.0000
  H   H52       1.0  0.99746  0.44535  0.43046  1.0000
  H   H53       1.0  0.95760  0.41161  0.44584  1.0000
  N   N23       1.0  0.08794  0.55501  0.53014  1.0000
  O   O17       1.0  0.08047  0.53171  0.58784  1.0000
  O   O18       1.0  0.08046  0.57703  0.56041  1.0000
  N   N24       1.0  0.12582  0.56273  0.37291  1.0000
  H   H54       1.0  0.13657  0.55612  0.42008  1.0000
