data_image0
_chemical_formula_structural       C3HCH3CH2C3HCH3CH2C3HCH3CH2C6H3NHNHNHC6H3NHNHNHC3HCH3CH2C3HCH3CH2C3HCH3CH2C3HCH3CH2C3HCH3CH2C3HCH3CH2C6H3NHNHNHC6H3NHNHNHC3HCH3CH2C3HCH3CH2C3HCH3CH2C3HCH3CH2C3HCH3CH2C3HCH3CH2C6H3NHNHNHC6H3NHNHNHC3HCH3CH2C3HCH3CH2C3HCH3CH2C3HCH3CH2C3HCH3CH2C3HCH3CH2C6H3NHNHNHC6H3NHNHNHC3HCH3CH2C3HCH3CH2C3HCH3CH2
_chemical_formula_sum              "C168 H192 N24"
_cell_length_a       43.9227
_cell_length_b       43.9226
_cell_length_c       14.9991
_cell_angle_alpha    90
_cell_angle_beta     90
_cell_angle_gamma    120

_space_group_name_H-M_alt    "P 1"
_space_group_IT_number       1

loop_
  _space_group_symop_operation_xyz
  'x, y, z'

loop_
  _atom_site_type_symbol
  _atom_site_label
  _atom_site_symmetry_multiplicity
  _atom_site_fract_x
  _atom_site_fract_y
  _atom_site_fract_z
  _atom_site_occupancy
  C   C1        1.0  0.23621  0.21958  0.27780  1.0000
  C   C2        1.0  0.21994  0.24035  0.28304  1.0000
  C   C3        1.0  0.23309  0.27060  0.33762  1.0000
  H   H1        1.0  0.19782  0.23321  0.24587  1.0000
  C   C4        1.0  0.22042  0.18802  0.21892  1.0000
  H   H2        1.0  0.21412  0.16456  0.25765  1.0000
  H   H3        1.0  0.23884  0.19115  0.16611  1.0000
  H   H4        1.0  0.19619  0.18352  0.18691  1.0000
  C   C5        1.0  0.21457  0.29140  0.33752  1.0000
  H   H5        1.0  0.19322  0.28112  0.28852  1.0000
  H   H6        1.0  0.23347  0.31816  0.31649  1.0000
  C   C6        1.0  0.28049  0.01664  0.27774  1.0000
  C   C7        1.0  0.25973  0.47960  0.28296  1.0000
  C   C8        1.0  0.22948  0.46250  0.33754  1.0000
  H   H7        1.0  0.26688  0.46463  0.24579  1.0000
  C   C9        1.0  0.31206  0.03242  0.21887  1.0000
  H   H8        1.0  0.33551  0.04958  0.25761  1.0000
  H   H9        1.0  0.30893  0.04771  0.16607  1.0000
  H   H10       1.0  0.31656  0.01270  0.18685  1.0000
  C   C10       1.0  0.20869  0.42317  0.33744  1.0000
  H   H11       1.0  0.21897  0.41211  0.28843  1.0000
  H   H12       1.0  0.18192  0.41531  0.31641  1.0000
  C   C11       1.0  0.48347  0.26385  0.27766  1.0000
  C   C12       1.0  0.02050  0.28008  0.28293  1.0000
  C   C13       1.0  0.03757  0.26696  0.33774  1.0000
  H   H13       1.0  0.03550  0.30215  0.24560  1.0000
  C   C14       1.0  0.46772  0.27959  0.21854  1.0000
  H   H14       1.0  0.45059  0.28596  0.25710  1.0000
  H   H15       1.0  0.45243  0.26112  0.16583  1.0000
  H   H16       1.0  0.48748  0.30377  0.18639  1.0000
  C   C15       1.0  0.07689  0.28544  0.33763  1.0000
  H   H17       1.0  0.08798  0.30673  0.28847  1.0000
  H   H18       1.0  0.08471  0.26648  0.31681  1.0000
  C   C16       1.0  0.18285  0.31223  0.42914  1.0000
  C   C17       1.0  0.14584  0.29660  0.42997  1.0000
  C   C18       1.0  0.12946  0.31724  0.42913  1.0000
  C   C19       1.0  0.15085  0.35426  0.42991  1.0000
  C   C20       1.0  0.18787  0.37064  0.42908  1.0000
  C   C21       1.0  0.20350  0.34925  0.42996  1.0000
  H   H19       1.0  0.13930  0.36952  0.42914  1.0000
  H   H20       1.0  0.23031  0.36080  0.42913  1.0000
  H   H21       1.0  0.13058  0.26979  0.42925  1.0000
  N   N1        1.0  0.19980  0.29185  0.42649  1.0000
  H   H22       1.0  0.18292  0.26641  0.44618  1.0000
  N   N2        1.0  0.20824  0.40795  0.42641  1.0000
  H   H23       1.0  0.23369  0.41653  0.44608  1.0000
  N   N3        1.0  0.09214  0.30030  0.42652  1.0000
  H   H24       1.0  0.08358  0.31720  0.44604  1.0000
  C   C22       1.0  0.31726  0.18784  0.23766  1.0000
  C   C23       1.0  0.35427  0.20347  0.23686  1.0000
  C   C24       1.0  0.37064  0.18282  0.23774  1.0000
  C   C25       1.0  0.34925  0.14580  0.23690  1.0000
  C   C26       1.0  0.31223  0.12943  0.23766  1.0000
  C   C27       1.0  0.29661  0.15082  0.23684  1.0000
  H   H25       1.0  0.36079  0.13054  0.23765  1.0000
  H   H26       1.0  0.26980  0.13928  0.23756  1.0000
  H   H27       1.0  0.36954  0.23027  0.23764  1.0000
  N   N4        1.0  0.30032  0.20822  0.24029  1.0000
  H   H28       1.0  0.31720  0.23367  0.22061  1.0000
  N   N5        1.0  0.29185  0.09212  0.24028  1.0000
  H   H29       1.0  0.26641  0.08355  0.22058  1.0000
  N   N6        1.0  0.40796  0.19975  0.24040  1.0000
  H   H30       1.0  0.41653  0.18285  0.22090  1.0000
  C   C28       1.0  0.26703  0.22949  0.32913  1.0000
  C   C29       1.0  0.26392  0.28050  0.38896  1.0000
  C   C30       1.0  0.28019  0.25974  0.38372  1.0000
  H   H31       1.0  0.30230  0.26688  0.42089  1.0000
  C   C31       1.0  0.27970  0.31207  0.44784  1.0000
  H   H32       1.0  0.28600  0.33552  0.40912  1.0000
  H   H33       1.0  0.30393  0.31656  0.47985  1.0000
  H   H34       1.0  0.26128  0.30893  0.50066  1.0000
  C   C32       1.0  0.28555  0.20868  0.32925  1.0000
  H   H35       1.0  0.26664  0.18192  0.35029  1.0000
  H   H36       1.0  0.30690  0.21896  0.37826  1.0000
  C   C33       1.0  0.27058  0.03755  0.32909  1.0000
  C   C34       1.0  0.21957  0.48341  0.38888  1.0000
  C   C35       1.0  0.24032  0.02044  0.38366  1.0000
  H   H37       1.0  0.23318  0.03542  0.42083  1.0000
  C   C36       1.0  0.18800  0.46762  0.44774  1.0000
  H   H38       1.0  0.16455  0.45047  0.40899  1.0000
  H   H39       1.0  0.18349  0.48735  0.47974  1.0000
  H   H40       1.0  0.19113  0.45234  0.50055  1.0000
  C   C37       1.0  0.29138  0.07687  0.32923  1.0000
  H   H41       1.0  0.31814  0.08473  0.35028  1.0000
  H   H42       1.0  0.28110  0.08794  0.37824  1.0000
  C   C38       1.0  0.46252  0.23309  0.32922  1.0000
  C   C39       1.0  0.01662  0.23621  0.38930  1.0000
  C   C40       1.0  0.47959  0.21997  0.38404  1.0000
  H   H43       1.0  0.46459  0.19791  0.42136  1.0000
  C   C41       1.0  0.03237  0.22047  0.44844  1.0000
  H   H44       1.0  0.04950  0.21409  0.40988  1.0000
  H   H45       1.0  0.01261  0.19629  0.48060  1.0000
  H   H46       1.0  0.04766  0.23894  0.50114  1.0000
  C   C42       1.0  0.42320  0.21461  0.32930  1.0000
  H   H47       1.0  0.41537  0.23356  0.35012  1.0000
  H   H48       1.0  0.41210  0.19331  0.37845  1.0000
  C   C43       1.0  0.23621  0.71958  0.27780  1.0000
  C   C44       1.0  0.21994  0.74035  0.28304  1.0000
  C   C45       1.0  0.23309  0.77060  0.33762  1.0000
  H   H49       1.0  0.19782  0.73321  0.24587  1.0000
  C   C46       1.0  0.22042  0.68802  0.21892  1.0000
  H   H50       1.0  0.21412  0.66457  0.25765  1.0000
  H   H51       1.0  0.23884  0.69115  0.16611  1.0000
  H   H52       1.0  0.19620  0.68353  0.18691  1.0000
  C   C47       1.0  0.21457  0.79140  0.33752  1.0000
  H   H53       1.0  0.19322  0.78112  0.28852  1.0000
  H   H54       1.0  0.23347  0.81816  0.31649  1.0000
  C   C48       1.0  0.28049  0.51664  0.27774  1.0000
  C   C49       1.0  0.25973  0.97960  0.28296  1.0000
  C   C50       1.0  0.22948  0.96250  0.33754  1.0000
  H   H55       1.0  0.26687  0.96463  0.24579  1.0000
  C   C51       1.0  0.31206  0.53242  0.21887  1.0000
  H   H56       1.0  0.33551  0.54958  0.25761  1.0000
  H   H57       1.0  0.30893  0.54771  0.16607  1.0000
  H   H58       1.0  0.31656  0.51270  0.18685  1.0000
  C   C52       1.0  0.20869  0.92317  0.33744  1.0000
  H   H59       1.0  0.21897  0.91211  0.28843  1.0000
  H   H60       1.0  0.18192  0.91531  0.31641  1.0000
  C   C53       1.0  0.48347  0.76385  0.27766  1.0000
  C   C54       1.0  0.02050  0.78009  0.28293  1.0000
  C   C55       1.0  0.03757  0.76697  0.33774  1.0000
  H   H61       1.0  0.03550  0.80214  0.24560  1.0000
  C   C56       1.0  0.46772  0.77959  0.21854  1.0000
  H   H62       1.0  0.45059  0.78596  0.25710  1.0000
  H   H63       1.0  0.45243  0.76112  0.16583  1.0000
  H   H64       1.0  0.48748  0.80378  0.18639  1.0000
  C   C57       1.0  0.07689  0.78544  0.33763  1.0000
  H   H65       1.0  0.08798  0.80673  0.28847  1.0000
  H   H66       1.0  0.08471  0.76648  0.31681  1.0000
  C   C58       1.0  0.18285  0.81223  0.42914  1.0000
  C   C59       1.0  0.14584  0.79660  0.42997  1.0000
  C   C60       1.0  0.12946  0.81724  0.42913  1.0000
  C   C61       1.0  0.15085  0.85426  0.42991  1.0000
  C   C62       1.0  0.18787  0.87064  0.42908  1.0000
  C   C63       1.0  0.20350  0.84925  0.42996  1.0000
  H   H67       1.0  0.13930  0.86952  0.42914  1.0000
  H   H68       1.0  0.23031  0.86080  0.42913  1.0000
  H   H69       1.0  0.13058  0.76979  0.42925  1.0000
  N   N7        1.0  0.19980  0.79186  0.42649  1.0000
  H   H70       1.0  0.18292  0.76641  0.44618  1.0000
  N   N8        1.0  0.20824  0.90795  0.42641  1.0000
  H   H71       1.0  0.23369  0.91653  0.44608  1.0000
  N   N9        1.0  0.09214  0.80031  0.42652  1.0000
  H   H72       1.0  0.08358  0.81720  0.44604  1.0000
  C   C64       1.0  0.31726  0.68784  0.23766  1.0000
  C   C65       1.0  0.35427  0.70347  0.23686  1.0000
  C   C66       1.0  0.37065  0.68282  0.23774  1.0000
  C   C67       1.0  0.34925  0.64580  0.23690  1.0000
  C   C68       1.0  0.31223  0.62943  0.23766  1.0000
  C   C69       1.0  0.29661  0.65082  0.23684  1.0000
  H   H73       1.0  0.36079  0.63054  0.23765  1.0000
  H   H74       1.0  0.26980  0.63928  0.23756  1.0000
  H   H75       1.0  0.36953  0.73027  0.23764  1.0000
  N   N10       1.0  0.30032  0.70822  0.24029  1.0000
  H   H76       1.0  0.31720  0.73367  0.22061  1.0000
  N   N11       1.0  0.29185  0.59211  0.24028  1.0000
  H   H77       1.0  0.26641  0.58355  0.22058  1.0000
  N   N12       1.0  0.40796  0.69975  0.24040  1.0000
  H   H78       1.0  0.41653  0.68285  0.22090  1.0000
  C   C70       1.0  0.26703  0.72949  0.32913  1.0000
  C   C71       1.0  0.26392  0.78050  0.38896  1.0000
  C   C72       1.0  0.28019  0.75974  0.38372  1.0000
  H   H79       1.0  0.30230  0.76688  0.42089  1.0000
  C   C73       1.0  0.27970  0.81207  0.44784  1.0000
  H   H80       1.0  0.28600  0.83552  0.40912  1.0000
  H   H81       1.0  0.30393  0.81656  0.47985  1.0000
  H   H82       1.0  0.26128  0.80893  0.50066  1.0000
  C   C74       1.0  0.28555  0.70868  0.32925  1.0000
  H   H83       1.0  0.26664  0.68192  0.35029  1.0000
  H   H84       1.0  0.30690  0.71897  0.37826  1.0000
  C   C75       1.0  0.27058  0.53755  0.32909  1.0000
  C   C76       1.0  0.21957  0.98341  0.38888  1.0000
  C   C77       1.0  0.24032  0.52044  0.38366  1.0000
  H   H85       1.0  0.23318  0.53542  0.42083  1.0000
  C   C78       1.0  0.18800  0.96762  0.44774  1.0000
  H   H86       1.0  0.16455  0.95047  0.40899  1.0000
  H   H87       1.0  0.18349  0.98735  0.47975  1.0000
  H   H88       1.0  0.19113  0.95234  0.50055  1.0000
  C   C79       1.0  0.29138  0.57687  0.32923  1.0000
  H   H89       1.0  0.31814  0.58473  0.35028  1.0000
  H   H90       1.0  0.28109  0.58794  0.37824  1.0000
  C   C80       1.0  0.46252  0.73309  0.32922  1.0000
  C   C81       1.0  0.01662  0.73621  0.38930  1.0000
  C   C82       1.0  0.47959  0.71998  0.38404  1.0000
  H   H91       1.0  0.46459  0.69791  0.42136  1.0000
  C   C83       1.0  0.03237  0.72047  0.44844  1.0000
  H   H92       1.0  0.04950  0.71409  0.40988  1.0000
  H   H93       1.0  0.01261  0.69629  0.48060  1.0000
  H   H94       1.0  0.04766  0.73894  0.50114  1.0000
  C   C84       1.0  0.42320  0.71461  0.32930  1.0000
  H   H95       1.0  0.41537  0.73356  0.35012  1.0000
  H   H96       1.0  0.41211  0.69331  0.37845  1.0000
  C   C85       1.0  0.73621  0.21958  0.27780  1.0000
  C   C86       1.0  0.71994  0.24035  0.28304  1.0000
  C   C87       1.0  0.73309  0.27060  0.33762  1.0000
  H   H97       1.0  0.69782  0.23321  0.24587  1.0000
  C   C88       1.0  0.72042  0.18802  0.21892  1.0000
  H   H98       1.0  0.71412  0.16456  0.25765  1.0000
  H   H99       1.0  0.73884  0.19115  0.16611  1.0000
  H   H100      1.0  0.69619  0.18352  0.18691  1.0000
  C   C89       1.0  0.71457  0.29140  0.33752  1.0000
  H   H101      1.0  0.69322  0.28112  0.28852  1.0000
  H   H102      1.0  0.73347  0.31816  0.31649  1.0000
  C   C90       1.0  0.78049  0.01664  0.27774  1.0000
  C   C91       1.0  0.75973  0.47960  0.28296  1.0000
  C   C92       1.0  0.72948  0.46250  0.33754  1.0000
  H   H103      1.0  0.76688  0.46463  0.24579  1.0000
  C   C93       1.0  0.81206  0.03242  0.21887  1.0000
  H   H104      1.0  0.83551  0.04958  0.25761  1.0000
  H   H105      1.0  0.80892  0.04771  0.16607  1.0000
  H   H106      1.0  0.81656  0.01270  0.18685  1.0000
  C   C94       1.0  0.70869  0.42317  0.33744  1.0000
  H   H107      1.0  0.71897  0.41211  0.28843  1.0000
  H   H108      1.0  0.68192  0.41531  0.31641  1.0000
  C   C95       1.0  0.98347  0.26385  0.27766  1.0000
  C   C96       1.0  0.52050  0.28008  0.28293  1.0000
  C   C97       1.0  0.53757  0.26696  0.33774  1.0000
  H   H109      1.0  0.53550  0.30215  0.24560  1.0000
  C   C98       1.0  0.96772  0.27959  0.21854  1.0000
  H   H110      1.0  0.95059  0.28596  0.25710  1.0000
  H   H111      1.0  0.95243  0.26112  0.16583  1.0000
  H   H112      1.0  0.98747  0.30377  0.18639  1.0000
  C   C99       1.0  0.57689  0.28544  0.33763  1.0000
  H   H113      1.0  0.58798  0.30673  0.28847  1.0000
  H   H114      1.0  0.58471  0.26648  0.31681  1.0000
  C   C100      1.0  0.68285  0.31223  0.42914  1.0000
  C   C101      1.0  0.64584  0.29660  0.42997  1.0000
  C   C102      1.0  0.62946  0.31724  0.42913  1.0000
  C   C103      1.0  0.65085  0.35426  0.42991  1.0000
  C   C104      1.0  0.68787  0.37064  0.42908  1.0000
  C   C105      1.0  0.70350  0.34925  0.42996  1.0000
  H   H115      1.0  0.63930  0.36952  0.42914  1.0000
  H   H116      1.0  0.73030  0.36080  0.42913  1.0000
  H   H117      1.0  0.63058  0.26979  0.42925  1.0000
  N   N13       1.0  0.69979  0.29185  0.42649  1.0000
  H   H118      1.0  0.68292  0.26641  0.44618  1.0000
  N   N14       1.0  0.70824  0.40795  0.42641  1.0000
  H   H119      1.0  0.73369  0.41653  0.44608  1.0000
  N   N15       1.0  0.59214  0.30030  0.42652  1.0000
  H   H120      1.0  0.58358  0.31720  0.44604  1.0000
  C   C106      1.0  0.81726  0.18784  0.23766  1.0000
  C   C107      1.0  0.85427  0.20347  0.23686  1.0000
  C   C108      1.0  0.87065  0.18282  0.23774  1.0000
  C   C109      1.0  0.84925  0.14580  0.23690  1.0000
  C   C110      1.0  0.81223  0.12943  0.23766  1.0000
  C   C111      1.0  0.79661  0.15082  0.23684  1.0000
  H   H121      1.0  0.86079  0.13054  0.23765  1.0000
  H   H122      1.0  0.76980  0.13928  0.23756  1.0000
  H   H123      1.0  0.86953  0.23027  0.23764  1.0000
  N   N16       1.0  0.80032  0.20822  0.24029  1.0000
  H   H124      1.0  0.81720  0.23367  0.22061  1.0000
  N   N17       1.0  0.79185  0.09212  0.24028  1.0000
  H   H125      1.0  0.76641  0.08355  0.22058  1.0000
  N   N18       1.0  0.90796  0.19975  0.24040  1.0000
  H   H126      1.0  0.91653  0.18285  0.22090  1.0000
  C   C112      1.0  0.76703  0.22949  0.32913  1.0000
  C   C113      1.0  0.76392  0.28050  0.38896  1.0000
  C   C114      1.0  0.78019  0.25974  0.38372  1.0000
  H   H127      1.0  0.80230  0.26688  0.42089  1.0000
  C   C115      1.0  0.77970  0.31207  0.44784  1.0000
  H   H128      1.0  0.78600  0.33552  0.40912  1.0000
  H   H129      1.0  0.80393  0.31656  0.47985  1.0000
  H   H130      1.0  0.76128  0.30893  0.50066  1.0000
  C   C116      1.0  0.78555  0.20868  0.32925  1.0000
  H   H131      1.0  0.76664  0.18192  0.35029  1.0000
  H   H132      1.0  0.80690  0.21896  0.37826  1.0000
  C   C117      1.0  0.77058  0.03755  0.32909  1.0000
  C   C118      1.0  0.71956  0.48341  0.38888  1.0000
  C   C119      1.0  0.74032  0.02044  0.38366  1.0000
  H   H133      1.0  0.73318  0.03542  0.42083  1.0000
  C   C120      1.0  0.68800  0.46762  0.44774  1.0000
  H   H134      1.0  0.66455  0.45047  0.40899  1.0000
  H   H135      1.0  0.68349  0.48735  0.47974  1.0000
  H   H136      1.0  0.69113  0.45234  0.50055  1.0000
  C   C121      1.0  0.79138  0.07687  0.32923  1.0000
  H   H137      1.0  0.81814  0.08473  0.35028  1.0000
  H   H138      1.0  0.78110  0.08794  0.37824  1.0000
  C   C122      1.0  0.96252  0.23309  0.32922  1.0000
  C   C123      1.0  0.51662  0.23621  0.38930  1.0000
  C   C124      1.0  0.97959  0.21997  0.38404  1.0000
  H   H139      1.0  0.96459  0.19791  0.42136  1.0000
  C   C125      1.0  0.53237  0.22047  0.44844  1.0000
  H   H140      1.0  0.54950  0.21409  0.40988  1.0000
  H   H141      1.0  0.51261  0.19629  0.48060  1.0000
  H   H142      1.0  0.54766  0.23894  0.50114  1.0000
  C   C126      1.0  0.92320  0.21461  0.32930  1.0000
  H   H143      1.0  0.91537  0.23356  0.35012  1.0000
  H   H144      1.0  0.91211  0.19331  0.37845  1.0000
  C   C127      1.0  0.73620  0.71958  0.27780  1.0000
  C   C128      1.0  0.71994  0.74035  0.28304  1.0000
  C   C129      1.0  0.73309  0.77060  0.33762  1.0000
  H   H145      1.0  0.69782  0.73321  0.24587  1.0000
  C   C130      1.0  0.72042  0.68802  0.21892  1.0000
  H   H146      1.0  0.71412  0.66457  0.25765  1.0000
  H   H147      1.0  0.73884  0.69115  0.16611  1.0000
  H   H148      1.0  0.69619  0.68353  0.18691  1.0000
  C   C131      1.0  0.71457  0.79140  0.33752  1.0000
  H   H149      1.0  0.69322  0.78112  0.28852  1.0000
  H   H150      1.0  0.73347  0.81816  0.31649  1.0000
  C   C132      1.0  0.78049  0.51664  0.27774  1.0000
  C   C133      1.0  0.75973  0.97960  0.28296  1.0000
  C   C134      1.0  0.72948  0.96250  0.33754  1.0000
  H   H151      1.0  0.76687  0.96463  0.24579  1.0000
  C   C135      1.0  0.81206  0.53242  0.21887  1.0000
  H   H152      1.0  0.83551  0.54958  0.25761  1.0000
  H   H153      1.0  0.80893  0.54771  0.16607  1.0000
  H   H154      1.0  0.81656  0.51270  0.18685  1.0000
  C   C136      1.0  0.70869  0.92317  0.33744  1.0000
  H   H155      1.0  0.71897  0.91211  0.28843  1.0000
  H   H156      1.0  0.68192  0.91531  0.31641  1.0000
  C   C137      1.0  0.98347  0.76385  0.27766  1.0000
  C   C138      1.0  0.52050  0.78009  0.28293  1.0000
  C   C139      1.0  0.53757  0.76697  0.33774  1.0000
  H   H157      1.0  0.53550  0.80214  0.24560  1.0000
  C   C140      1.0  0.96772  0.77959  0.21854  1.0000
  H   H158      1.0  0.95059  0.78596  0.25710  1.0000
  H   H159      1.0  0.95243  0.76112  0.16583  1.0000
  H   H160      1.0  0.98747  0.80378  0.18639  1.0000
  C   C141      1.0  0.57689  0.78544  0.33763  1.0000
  H   H161      1.0  0.58798  0.80673  0.28847  1.0000
  H   H162      1.0  0.58471  0.76648  0.31681  1.0000
  C   C142      1.0  0.68285  0.81223  0.42914  1.0000
  C   C143      1.0  0.64584  0.79660  0.42997  1.0000
  C   C144      1.0  0.62946  0.81724  0.42913  1.0000
  C   C145      1.0  0.65085  0.85426  0.42991  1.0000
  C   C146      1.0  0.68787  0.87064  0.42908  1.0000
  C   C147      1.0  0.70350  0.84925  0.42996  1.0000
  H   H163      1.0  0.63930  0.86952  0.42914  1.0000
  H   H164      1.0  0.73031  0.86080  0.42913  1.0000
  H   H165      1.0  0.63058  0.76979  0.42925  1.0000
  N   N19       1.0  0.69980  0.79186  0.42649  1.0000
  H   H166      1.0  0.68292  0.76641  0.44618  1.0000
  N   N20       1.0  0.70824  0.90795  0.42641  1.0000
  H   H167      1.0  0.73369  0.91653  0.44608  1.0000
  N   N21       1.0  0.59214  0.80031  0.42652  1.0000
  H   H168      1.0  0.58358  0.81720  0.44604  1.0000
  C   C148      1.0  0.81726  0.68784  0.23766  1.0000
  C   C149      1.0  0.85427  0.70347  0.23686  1.0000
  C   C150      1.0  0.87065  0.68282  0.23774  1.0000
  C   C151      1.0  0.84925  0.64580  0.23690  1.0000
  C   C152      1.0  0.81223  0.62943  0.23766  1.0000
  C   C153      1.0  0.79661  0.65082  0.23684  1.0000
  H   H169      1.0  0.86079  0.63054  0.23765  1.0000
  H   H170      1.0  0.76980  0.63928  0.23756  1.0000
  H   H171      1.0  0.86953  0.73027  0.23764  1.0000
  N   N22       1.0  0.80032  0.70822  0.24029  1.0000
  H   H172      1.0  0.81720  0.73367  0.22061  1.0000
  N   N23       1.0  0.79185  0.59211  0.24028  1.0000
  H   H173      1.0  0.76641  0.58355  0.22058  1.0000
  N   N24       1.0  0.90796  0.69975  0.24040  1.0000
  H   H174      1.0  0.91653  0.68285  0.22090  1.0000
  C   C154      1.0  0.76703  0.72949  0.32913  1.0000
  C   C155      1.0  0.76391  0.78050  0.38896  1.0000
  C   C156      1.0  0.78018  0.75974  0.38372  1.0000
  H   H175      1.0  0.80230  0.76688  0.42089  1.0000
  C   C157      1.0  0.77970  0.81207  0.44784  1.0000
  H   H176      1.0  0.78600  0.83552  0.40912  1.0000
  H   H177      1.0  0.80393  0.81656  0.47985  1.0000
  H   H178      1.0  0.76128  0.80893  0.50066  1.0000
  C   C158      1.0  0.78555  0.70868  0.32925  1.0000
  H   H179      1.0  0.76664  0.68192  0.35029  1.0000
  H   H180      1.0  0.80690  0.71897  0.37826  1.0000
  C   C159      1.0  0.77058  0.53755  0.32909  1.0000
  C   C160      1.0  0.71956  0.98341  0.38888  1.0000
  C   C161      1.0  0.74032  0.52044  0.38366  1.0000
  H   H181      1.0  0.73318  0.53542  0.42083  1.0000
  C   C162      1.0  0.68799  0.96762  0.44774  1.0000
  H   H182      1.0  0.66455  0.95047  0.40899  1.0000
  H   H183      1.0  0.68349  0.98735  0.47975  1.0000
  H   H184      1.0  0.69113  0.95234  0.50055  1.0000
  C   C163      1.0  0.79138  0.57687  0.32923  1.0000
  H   H185      1.0  0.81814  0.58473  0.35028  1.0000
  H   H186      1.0  0.78109  0.58794  0.37824  1.0000
  C   C164      1.0  0.96252  0.73309  0.32922  1.0000
  C   C165      1.0  0.51662  0.73621  0.38930  1.0000
  C   C166      1.0  0.97959  0.71998  0.38404  1.0000
  H   H187      1.0  0.96459  0.69791  0.42136  1.0000
  C   C167      1.0  0.53237  0.72047  0.44844  1.0000
  H   H188      1.0  0.54950  0.71409  0.40988  1.0000
  H   H189      1.0  0.51261  0.69629  0.48060  1.0000
  H   H190      1.0  0.54766  0.73894  0.50114  1.0000
  C   C168      1.0  0.92320  0.71461  0.32930  1.0000
  H   H191      1.0  0.91537  0.73356  0.35012  1.0000
  H   H192      1.0  0.91211  0.69331  0.37845  1.0000
