data_image0
_chemical_formula_structural       N7C18H12NC18H12C4H2C4H2C4H2N7C18H12NC18H12C4H2C4H2C4H2N7C18H12NC18H12C4H2C4H2C4H2N7C18H12NC18H12C4H2C4H2C4H2
_chemical_formula_sum              "N32 C192 H120"
_cell_length_a       49.79
_cell_length_b       49.79
_cell_length_c       14.4799
_cell_angle_alpha    90
_cell_angle_beta     90
_cell_angle_gamma    120

_space_group_name_H-M_alt    "P 1"
_space_group_IT_number       1

loop_
  _space_group_symop_operation_xyz
  'x, y, z'

loop_
  _atom_site_type_symbol
  _atom_site_label
  _atom_site_symmetry_multiplicity
  _atom_site_fract_x
  _atom_site_fract_y
  _atom_site_fract_z
  _atom_site_occupancy
  N   N1        1.0  0.26958  0.27504  0.30177  1.0000
  N   N2        1.0  0.28453  0.25951  0.30147  1.0000
  N   N3        1.0  0.27447  0.50223  0.30563  1.0000
  N   N4        1.0  0.29009  0.03271  0.30460  1.0000
  N   N5        1.0  0.04250  0.27058  0.30410  1.0000
  N   N6        1.0  0.51203  0.25572  0.30518  1.0000
  N   N7        1.0  0.19393  0.35072  0.35169  1.0000
  C   C1        1.0  0.21083  0.33459  0.35945  1.0000
  C   C2        1.0  0.20993  0.38379  0.35953  1.0000
  C   C3        1.0  0.16088  0.33365  0.35881  1.0000
  C   C4        1.0  0.14212  0.32913  0.28070  1.0000
  C   C5        1.0  0.10942  0.31272  0.28746  1.0000
  C   C6        1.0  0.09404  0.30059  0.37283  1.0000
  C   C7        1.0  0.11327  0.30498  0.45050  1.0000
  C   C8        1.0  0.14591  0.32102  0.44366  1.0000
  C   C9        1.0  0.22675  0.33556  0.44112  1.0000
  C   C10       1.0  0.24333  0.31948  0.44781  1.0000
  C   C11       1.0  0.24470  0.30151  0.37356  1.0000
  C   C12       1.0  0.22880  0.30105  0.29155  1.0000
  C   C13       1.0  0.21220  0.31713  0.28465  1.0000
  C   C14       1.0  0.22795  0.40279  0.28581  1.0000
  C   C15       1.0  0.24392  0.43548  0.29332  1.0000
  C   C16       1.0  0.24273  0.45087  0.37469  1.0000
  C   C17       1.0  0.22437  0.43124  0.44802  1.0000
  C   C18       1.0  0.20849  0.39861  0.44087  1.0000
  H   H1        1.0  0.25491  0.32170  0.50804  1.0000
  H   H2        1.0  0.22639  0.34814  0.49643  1.0000
  H   H3        1.0  0.20097  0.31603  0.22440  1.0000
  H   H4        1.0  0.22874  0.28851  0.23551  1.0000
  H   H5        1.0  0.15230  0.33792  0.21819  1.0000
  H   H6        1.0  0.09689  0.31042  0.22904  1.0000
  H   H7        1.0  0.22954  0.39280  0.22589  1.0000
  H   H8        1.0  0.25669  0.44799  0.23767  1.0000
  H   H9        1.0  0.22195  0.44023  0.50858  1.0000
  H   H10       1.0  0.19577  0.38561  0.49588  1.0000
  H   H11       1.0  0.15884  0.32371  0.50142  1.0000
  H   H12       1.0  0.10375  0.29605  0.51348  1.0000
  N   N8        1.0  0.36062  0.18410  0.35122  1.0000
  C   C19       1.0  0.34358  0.20015  0.35835  1.0000
  C   C20       1.0  0.34457  0.15107  0.35876  1.0000
  C   C21       1.0  0.39365  0.20100  0.35982  1.0000
  C   C22       1.0  0.40842  0.21760  0.44077  1.0000
  C   C23       1.0  0.44106  0.23440  0.44792  1.0000
  C   C24       1.0  0.46070  0.23535  0.37504  1.0000
  C   C25       1.0  0.44535  0.21848  0.29405  1.0000
  C   C26       1.0  0.41268  0.20175  0.28649  1.0000
  C   C27       1.0  0.32807  0.19968  0.44045  1.0000
  C   C28       1.0  0.31170  0.21595  0.44721  1.0000
  C   C29       1.0  0.31012  0.23365  0.37257  1.0000
  C   C30       1.0  0.32553  0.23358  0.29003  1.0000
  C   C31       1.0  0.34198  0.21733  0.28312  1.0000
  C   C32       1.0  0.34148  0.13615  0.44417  1.0000
  C   C33       1.0  0.32487  0.10350  0.45102  1.0000
  C   C34       1.0  0.31084  0.08425  0.37281  1.0000
  C   C35       1.0  0.31486  0.09960  0.28696  1.0000
  C   C36       1.0  0.33113  0.13229  0.28016  1.0000
  H   H13       1.0  0.30047  0.21413  0.50789  1.0000
  H   H14       1.0  0.32870  0.18746  0.49633  1.0000
  H   H15       1.0  0.35297  0.21815  0.22264  1.0000
  H   H16       1.0  0.32540  0.24593  0.23373  1.0000
  H   H17       1.0  0.39535  0.21763  0.49520  1.0000
  H   H18       1.0  0.45009  0.24625  0.50788  1.0000
  H   H19       1.0  0.35119  0.14910  0.50228  1.0000
  H   H20       1.0  0.32373  0.09399  0.51444  1.0000
  H   H21       1.0  0.30525  0.08705  0.22812  1.0000
  H   H22       1.0  0.33311  0.14245  0.21723  1.0000
  H   H23       1.0  0.40272  0.19001  0.22676  1.0000
  H   H24       1.0  0.45787  0.21800  0.23874  1.0000
  C   C37       1.0  0.29374  0.25076  0.37906  1.0000
  C   C38       1.0  0.28613  0.25985  0.46327  1.0000
  C   C39       1.0  0.27004  0.27645  0.46356  1.0000
  C   C40       1.0  0.26131  0.28460  0.37963  1.0000
  H   H25       1.0  0.26447  0.28192  0.52592  1.0000
  H   H26       1.0  0.29252  0.25506  0.52535  1.0000
  C   C41       1.0  0.29341  0.05083  0.37922  1.0000
  C   C42       1.0  0.27829  0.03443  0.46047  1.0000
  C   C43       1.0  0.26155  0.50175  0.46125  1.0000
  C   C44       1.0  0.25935  0.48450  0.38080  1.0000
  H   H27       1.0  0.25123  0.49111  0.52170  1.0000
  H   H28       1.0  0.27864  0.04592  0.51933  1.0000
  C   C45       1.0  0.49431  0.25235  0.38107  1.0000
  C   C46       1.0  0.51153  0.26656  0.46226  1.0000
  C   C47       1.0  0.04422  0.28253  0.46140  1.0000
  C   C48       1.0  0.06063  0.28464  0.37935  1.0000
  H   H29       1.0  0.05571  0.29300  0.52093  1.0000
  H   H30       1.0  0.50085  0.26545  0.52336  1.0000
  N   N9        1.0  0.26958  0.77504  0.30177  1.0000
  N   N10       1.0  0.28453  0.75951  0.30147  1.0000
  N   N11       1.0  0.27447  0.00223  0.30563  1.0000
  N   N12       1.0  0.29009  0.53271  0.30460  1.0000
  N   N13       1.0  0.04251  0.77058  0.30410  1.0000
  N   N14       1.0  0.51203  0.75572  0.30518  1.0000
  N   N15       1.0  0.19393  0.85072  0.35169  1.0000
  C   C49       1.0  0.21083  0.83459  0.35945  1.0000
  C   C50       1.0  0.20993  0.88379  0.35953  1.0000
  C   C51       1.0  0.16088  0.83365  0.35881  1.0000
  C   C52       1.0  0.14212  0.82913  0.28070  1.0000
  C   C53       1.0  0.10942  0.81272  0.28746  1.0000
  C   C54       1.0  0.09404  0.80059  0.37283  1.0000
  C   C55       1.0  0.11327  0.80498  0.45049  1.0000
  C   C56       1.0  0.14591  0.82102  0.44366  1.0000
  C   C57       1.0  0.22675  0.83556  0.44112  1.0000
  C   C58       1.0  0.24333  0.81948  0.44781  1.0000
  C   C59       1.0  0.24470  0.80151  0.37356  1.0000
  C   C60       1.0  0.22880  0.80105  0.29155  1.0000
  C   C61       1.0  0.21220  0.81713  0.28465  1.0000
  C   C62       1.0  0.22795  0.90279  0.28582  1.0000
  C   C63       1.0  0.24392  0.93548  0.29333  1.0000
  C   C64       1.0  0.24273  0.95087  0.37469  1.0000
  C   C65       1.0  0.22437  0.93124  0.44802  1.0000
  C   C66       1.0  0.20849  0.89861  0.44087  1.0000
  H   H31       1.0  0.25491  0.82170  0.50804  1.0000
  H   H32       1.0  0.22639  0.84815  0.49643  1.0000
  H   H33       1.0  0.20097  0.81602  0.22440  1.0000
  H   H34       1.0  0.22874  0.78851  0.23551  1.0000
  H   H35       1.0  0.15230  0.83793  0.21819  1.0000
  H   H36       1.0  0.09689  0.81042  0.22904  1.0000
  H   H37       1.0  0.22954  0.89280  0.22589  1.0000
  H   H38       1.0  0.25669  0.94799  0.23767  1.0000
  H   H39       1.0  0.22194  0.94023  0.50858  1.0000
  H   H40       1.0  0.19576  0.88561  0.49587  1.0000
  H   H41       1.0  0.15884  0.82371  0.50142  1.0000
  H   H42       1.0  0.10375  0.79605  0.51348  1.0000
  N   N16       1.0  0.36062  0.68410  0.35122  1.0000
  C   C67       1.0  0.34358  0.70015  0.35835  1.0000
  C   C68       1.0  0.34457  0.65107  0.35876  1.0000
  C   C69       1.0  0.39365  0.70100  0.35982  1.0000
  C   C70       1.0  0.40842  0.71759  0.44077  1.0000
  C   C71       1.0  0.44106  0.73440  0.44792  1.0000
  C   C72       1.0  0.46070  0.73535  0.37504  1.0000
  C   C73       1.0  0.44535  0.71847  0.29405  1.0000
  C   C74       1.0  0.41268  0.70175  0.28649  1.0000
  C   C75       1.0  0.32807  0.69968  0.44045  1.0000
  C   C76       1.0  0.31170  0.71595  0.44721  1.0000
  C   C77       1.0  0.31012  0.73365  0.37257  1.0000
  C   C78       1.0  0.32553  0.73358  0.29003  1.0000
  C   C79       1.0  0.34198  0.71733  0.28312  1.0000
  C   C80       1.0  0.34148  0.63615  0.44417  1.0000
  C   C81       1.0  0.32487  0.60350  0.45102  1.0000
  C   C82       1.0  0.31084  0.58425  0.37281  1.0000
  C   C83       1.0  0.31486  0.59960  0.28696  1.0000
  C   C84       1.0  0.33113  0.63229  0.28016  1.0000
  H   H43       1.0  0.30047  0.71413  0.50789  1.0000
  H   H44       1.0  0.32870  0.68746  0.49633  1.0000
  H   H45       1.0  0.35297  0.71815  0.22264  1.0000
  H   H46       1.0  0.32540  0.74593  0.23373  1.0000
  H   H47       1.0  0.39535  0.71763  0.49520  1.0000
  H   H48       1.0  0.45009  0.74625  0.50788  1.0000
  H   H49       1.0  0.35119  0.64910  0.50228  1.0000
  H   H50       1.0  0.32372  0.59400  0.51444  1.0000
  H   H51       1.0  0.30525  0.58705  0.22811  1.0000
  H   H52       1.0  0.33311  0.64245  0.21723  1.0000
  H   H53       1.0  0.40272  0.69000  0.22675  1.0000
  H   H54       1.0  0.45787  0.71800  0.23874  1.0000
  C   C85       1.0  0.29374  0.75075  0.37906  1.0000
  C   C86       1.0  0.28613  0.75985  0.46327  1.0000
  C   C87       1.0  0.27004  0.77645  0.46356  1.0000
  C   C88       1.0  0.26131  0.78460  0.37963  1.0000
  H   H55       1.0  0.26447  0.78192  0.52592  1.0000
  H   H56       1.0  0.29252  0.75506  0.52535  1.0000
  C   C89       1.0  0.29341  0.55083  0.37922  1.0000
  C   C90       1.0  0.27829  0.53443  0.46047  1.0000
  C   C91       1.0  0.26155  0.00175  0.46125  1.0000
  C   C92       1.0  0.25935  0.98450  0.38080  1.0000
  H   H57       1.0  0.25123  0.99111  0.52171  1.0000
  H   H58       1.0  0.27864  0.54592  0.51933  1.0000
  C   C93       1.0  0.49431  0.75235  0.38107  1.0000
  C   C94       1.0  0.51153  0.76655  0.46227  1.0000
  C   C95       1.0  0.04422  0.78253  0.46140  1.0000
  C   C96       1.0  0.06063  0.78463  0.37935  1.0000
  H   H59       1.0  0.05571  0.79300  0.52094  1.0000
  H   H60       1.0  0.50085  0.76545  0.52336  1.0000
  N   N17       1.0  0.76957  0.27504  0.30177  1.0000
  N   N18       1.0  0.78453  0.25951  0.30147  1.0000
  N   N19       1.0  0.77447  0.50223  0.30563  1.0000
  N   N20       1.0  0.79009  0.03271  0.30460  1.0000
  N   N21       1.0  0.54250  0.27058  0.30410  1.0000
  N   N22       1.0  0.01203  0.25572  0.30518  1.0000
  N   N23       1.0  0.69393  0.35072  0.35169  1.0000
  C   C97       1.0  0.71083  0.33459  0.35945  1.0000
  C   C98       1.0  0.70993  0.38379  0.35953  1.0000
  C   C99       1.0  0.66088  0.33365  0.35881  1.0000
  C   C100      1.0  0.64212  0.32913  0.28070  1.0000
  C   C101      1.0  0.60942  0.31272  0.28746  1.0000
  C   C102      1.0  0.59404  0.30059  0.37283  1.0000
  C   C103      1.0  0.61327  0.30498  0.45050  1.0000
  C   C104      1.0  0.64591  0.32102  0.44366  1.0000
  C   C105      1.0  0.72675  0.33556  0.44112  1.0000
  C   C106      1.0  0.74333  0.31948  0.44781  1.0000
  C   C107      1.0  0.74470  0.30151  0.37356  1.0000
  C   C108      1.0  0.72880  0.30105  0.29155  1.0000
  C   C109      1.0  0.71220  0.31713  0.28465  1.0000
  C   C110      1.0  0.72795  0.40279  0.28581  1.0000
  C   C111      1.0  0.74392  0.43548  0.29332  1.0000
  C   C112      1.0  0.74273  0.45087  0.37469  1.0000
  C   C113      1.0  0.72437  0.43124  0.44802  1.0000
  C   C114      1.0  0.70849  0.39861  0.44087  1.0000
  H   H61       1.0  0.75491  0.32170  0.50804  1.0000
  H   H62       1.0  0.72639  0.34814  0.49643  1.0000
  H   H63       1.0  0.70097  0.31603  0.22440  1.0000
  H   H64       1.0  0.72874  0.28851  0.23551  1.0000
  H   H65       1.0  0.65230  0.33792  0.21819  1.0000
  H   H66       1.0  0.59689  0.31042  0.22904  1.0000
  H   H67       1.0  0.72954  0.39280  0.22589  1.0000
  H   H68       1.0  0.75669  0.44799  0.23767  1.0000
  H   H69       1.0  0.72194  0.44023  0.50858  1.0000
  H   H70       1.0  0.69576  0.38561  0.49588  1.0000
  H   H71       1.0  0.65884  0.32371  0.50142  1.0000
  H   H72       1.0  0.60375  0.29605  0.51348  1.0000
  N   N24       1.0  0.86062  0.18410  0.35122  1.0000
  C   C115      1.0  0.84358  0.20015  0.35835  1.0000
  C   C116      1.0  0.84457  0.15107  0.35876  1.0000
  C   C117      1.0  0.89365  0.20100  0.35982  1.0000
  C   C118      1.0  0.90842  0.21760  0.44077  1.0000
  C   C119      1.0  0.94106  0.23440  0.44792  1.0000
  C   C120      1.0  0.96070  0.23535  0.37504  1.0000
  C   C121      1.0  0.94535  0.21848  0.29405  1.0000
  C   C122      1.0  0.91268  0.20175  0.28649  1.0000
  C   C123      1.0  0.82807  0.19968  0.44045  1.0000
  C   C124      1.0  0.81170  0.21595  0.44721  1.0000
  C   C125      1.0  0.81012  0.23365  0.37257  1.0000
  C   C126      1.0  0.82553  0.23358  0.29003  1.0000
  C   C127      1.0  0.84198  0.21733  0.28312  1.0000
  C   C128      1.0  0.84148  0.13615  0.44417  1.0000
  C   C129      1.0  0.82487  0.10350  0.45102  1.0000
  C   C130      1.0  0.81084  0.08425  0.37281  1.0000
  C   C131      1.0  0.81486  0.09960  0.28696  1.0000
  C   C132      1.0  0.83113  0.13229  0.28016  1.0000
  H   H73       1.0  0.80047  0.21413  0.50789  1.0000
  H   H74       1.0  0.82870  0.18746  0.49633  1.0000
  H   H75       1.0  0.85297  0.21815  0.22264  1.0000
  H   H76       1.0  0.82540  0.24593  0.23373  1.0000
  H   H77       1.0  0.89535  0.21763  0.49520  1.0000
  H   H78       1.0  0.95009  0.24625  0.50788  1.0000
  H   H79       1.0  0.85119  0.14910  0.50228  1.0000
  H   H80       1.0  0.82373  0.09399  0.51444  1.0000
  H   H81       1.0  0.80525  0.08705  0.22812  1.0000
  H   H82       1.0  0.83311  0.14245  0.21723  1.0000
  H   H83       1.0  0.90272  0.19001  0.22676  1.0000
  H   H84       1.0  0.95787  0.21800  0.23874  1.0000
  C   C133      1.0  0.79374  0.25076  0.37906  1.0000
  C   C134      1.0  0.78612  0.25985  0.46327  1.0000
  C   C135      1.0  0.77004  0.27645  0.46356  1.0000
  C   C136      1.0  0.76131  0.28460  0.37963  1.0000
  H   H85       1.0  0.76447  0.28192  0.52592  1.0000
  H   H86       1.0  0.79252  0.25506  0.52535  1.0000
  C   C137      1.0  0.79341  0.05083  0.37922  1.0000
  C   C138      1.0  0.77829  0.03443  0.46047  1.0000
  C   C139      1.0  0.76154  0.50175  0.46125  1.0000
  C   C140      1.0  0.75935  0.48450  0.38080  1.0000
  H   H87       1.0  0.75123  0.49111  0.52170  1.0000
  H   H88       1.0  0.77864  0.04592  0.51933  1.0000
  C   C141      1.0  0.99431  0.25235  0.38107  1.0000
  C   C142      1.0  0.01153  0.26656  0.46226  1.0000
  C   C143      1.0  0.54422  0.28253  0.46140  1.0000
  C   C144      1.0  0.56063  0.28464  0.37935  1.0000
  H   H89       1.0  0.55571  0.29300  0.52093  1.0000
  H   H90       1.0  0.00085  0.26545  0.52336  1.0000
  N   N25       1.0  0.76957  0.77504  0.30177  1.0000
  N   N26       1.0  0.78453  0.75951  0.30147  1.0000
  N   N27       1.0  0.77447  0.00223  0.30563  1.0000
  N   N28       1.0  0.79009  0.53271  0.30460  1.0000
  N   N29       1.0  0.54250  0.77058  0.30410  1.0000
  N   N30       1.0  0.01203  0.75572  0.30518  1.0000
  N   N31       1.0  0.69393  0.85072  0.35169  1.0000
  C   C145      1.0  0.71083  0.83459  0.35945  1.0000
  C   C146      1.0  0.70993  0.88379  0.35953  1.0000
  C   C147      1.0  0.66088  0.83365  0.35881  1.0000
  C   C148      1.0  0.64212  0.82913  0.28070  1.0000
  C   C149      1.0  0.60942  0.81272  0.28746  1.0000
  C   C150      1.0  0.59404  0.80059  0.37283  1.0000
  C   C151      1.0  0.61327  0.80498  0.45049  1.0000
  C   C152      1.0  0.64591  0.82102  0.44366  1.0000
  C   C153      1.0  0.72675  0.83556  0.44112  1.0000
  C   C154      1.0  0.74333  0.81948  0.44781  1.0000
  C   C155      1.0  0.74470  0.80151  0.37356  1.0000
  C   C156      1.0  0.72880  0.80105  0.29155  1.0000
  C   C157      1.0  0.71220  0.81713  0.28465  1.0000
  C   C158      1.0  0.72795  0.90279  0.28582  1.0000
  C   C159      1.0  0.74392  0.93548  0.29333  1.0000
  C   C160      1.0  0.74273  0.95087  0.37469  1.0000
  C   C161      1.0  0.72437  0.93124  0.44802  1.0000
  C   C162      1.0  0.70849  0.89861  0.44087  1.0000
  H   H91       1.0  0.75491  0.82170  0.50804  1.0000
  H   H92       1.0  0.72639  0.84815  0.49643  1.0000
  H   H93       1.0  0.70097  0.81602  0.22440  1.0000
  H   H94       1.0  0.72874  0.78851  0.23551  1.0000
  H   H95       1.0  0.65230  0.83793  0.21819  1.0000
  H   H96       1.0  0.59689  0.81042  0.22904  1.0000
  H   H97       1.0  0.72954  0.89280  0.22589  1.0000
  H   H98       1.0  0.75669  0.94799  0.23767  1.0000
  H   H99       1.0  0.72194  0.94023  0.50858  1.0000
  H   H100      1.0  0.69576  0.88561  0.49587  1.0000
  H   H101      1.0  0.65884  0.82371  0.50142  1.0000
  H   H102      1.0  0.60375  0.79605  0.51348  1.0000
  N   N32       1.0  0.86062  0.68410  0.35122  1.0000
  C   C163      1.0  0.84358  0.70015  0.35835  1.0000
  C   C164      1.0  0.84457  0.65107  0.35876  1.0000
  C   C165      1.0  0.89365  0.70100  0.35982  1.0000
  C   C166      1.0  0.90842  0.71759  0.44077  1.0000
  C   C167      1.0  0.94106  0.73440  0.44792  1.0000
  C   C168      1.0  0.96070  0.73535  0.37504  1.0000
  C   C169      1.0  0.94534  0.71847  0.29405  1.0000
  C   C170      1.0  0.91268  0.70175  0.28649  1.0000
  C   C171      1.0  0.82808  0.69968  0.44045  1.0000
  C   C172      1.0  0.81170  0.71595  0.44721  1.0000
  C   C173      1.0  0.81012  0.73365  0.37257  1.0000
  C   C174      1.0  0.82553  0.73358  0.29003  1.0000
  C   C175      1.0  0.84198  0.71733  0.28312  1.0000
  C   C176      1.0  0.84148  0.63615  0.44417  1.0000
  C   C177      1.0  0.82487  0.60350  0.45102  1.0000
  C   C178      1.0  0.81084  0.58425  0.37281  1.0000
  C   C179      1.0  0.81486  0.59960  0.28696  1.0000
  C   C180      1.0  0.83113  0.63229  0.28016  1.0000
  H   H103      1.0  0.80048  0.71413  0.50789  1.0000
  H   H104      1.0  0.82870  0.68746  0.49633  1.0000
  H   H105      1.0  0.85297  0.71815  0.22264  1.0000
  H   H106      1.0  0.82540  0.74593  0.23373  1.0000
  H   H107      1.0  0.89535  0.71763  0.49520  1.0000
  H   H108      1.0  0.95009  0.74625  0.50788  1.0000
  H   H109      1.0  0.85118  0.64910  0.50228  1.0000
  H   H110      1.0  0.82372  0.59400  0.51444  1.0000
  H   H111      1.0  0.80525  0.58705  0.22811  1.0000
  H   H112      1.0  0.83311  0.64245  0.21723  1.0000
  H   H113      1.0  0.90272  0.69000  0.22675  1.0000
  H   H114      1.0  0.95787  0.71800  0.23874  1.0000
  C   C181      1.0  0.79374  0.75075  0.37906  1.0000
  C   C182      1.0  0.78612  0.75985  0.46327  1.0000
  C   C183      1.0  0.77004  0.77645  0.46356  1.0000
  C   C184      1.0  0.76131  0.78460  0.37963  1.0000
  H   H115      1.0  0.76447  0.78192  0.52592  1.0000
  H   H116      1.0  0.79252  0.75506  0.52535  1.0000
  C   C185      1.0  0.79341  0.55083  0.37922  1.0000
  C   C186      1.0  0.77828  0.53443  0.46047  1.0000
  C   C187      1.0  0.76155  0.00175  0.46125  1.0000
  C   C188      1.0  0.75935  0.98450  0.38080  1.0000
  H   H117      1.0  0.75123  0.99111  0.52171  1.0000
  H   H118      1.0  0.77864  0.54592  0.51933  1.0000
  C   C189      1.0  0.99431  0.75235  0.38107  1.0000
  C   C190      1.0  0.01153  0.76655  0.46227  1.0000
  C   C191      1.0  0.54422  0.78253  0.46140  1.0000
  C   C192      1.0  0.56063  0.78463  0.37935  1.0000
  H   H119      1.0  0.55571  0.79300  0.52094  1.0000
  H   H120      1.0  0.00085  0.76545  0.52336  1.0000
