data_image0
_chemical_formula_structural       CHC2HCHC2HC3H2C3H2C6H2C2H2CHCHC6H3C4H2C4H2C2HC2H2C2H2CHCHC6H3C4H2C4H2C2HC2H2C2H2C2H2C6H3C6H3C4H2C4H2C4H2C2H2C2H2C2H2C6H3C6H3C4H2C4H2C4H2
_chemical_formula_sum              "C120 H72"
_cell_length_a       29.4749
_cell_length_b       29.4749
_cell_length_c       14.7953
_cell_angle_alpha    90
_cell_angle_beta     90
_cell_angle_gamma    120

_space_group_name_H-M_alt    "P 1"
_space_group_IT_number       1

loop_
  _space_group_symop_operation_xyz
  'x, y, z'

loop_
  _atom_site_type_symbol
  _atom_site_label
  _atom_site_symmetry_multiplicity
  _atom_site_fract_x
  _atom_site_fract_y
  _atom_site_fract_z
  _atom_site_occupancy
  C   C1        1.0  0.03797  0.27071  0.26549  1.0000
  H   H1        1.0  0.05742  0.28044  0.20498  1.0000
  C   C2        1.0  0.03800  0.27073  0.42990  1.0000
  C   C3        1.0  0.06618  0.28483  0.34768  1.0000
  H   H2        1.0  0.05747  0.28047  0.49040  1.0000
  C   C4        1.0  0.03796  0.77071  0.26549  1.0000
  H   H3        1.0  0.05742  0.78044  0.20498  1.0000
  C   C5        1.0  0.03800  0.77073  0.42990  1.0000
  C   C6        1.0  0.06618  0.78482  0.34768  1.0000
  H   H4        1.0  0.05747  0.78047  0.49040  1.0000
  C   C7        1.0  0.12140  0.31243  0.34764  1.0000
  C   C8        1.0  0.14948  0.36783  0.34764  1.0000
  C   C9        1.0  0.14946  0.28509  0.34764  1.0000
  H   H5        1.0  0.12937  0.24493  0.34765  1.0000
  H   H6        1.0  0.12941  0.38792  0.34765  1.0000
  C   C10       1.0  0.12140  0.81243  0.34764  1.0000
  C   C11       1.0  0.14948  0.86783  0.34764  1.0000
  C   C12       1.0  0.14946  0.78509  0.34764  1.0000
  H   H7        1.0  0.12937  0.74493  0.34765  1.0000
  H   H8        1.0  0.12940  0.88791  0.34765  1.0000
  C   C13       1.0  0.20488  0.39589  0.34764  1.0000
  C   C14       1.0  0.20485  0.31241  0.34764  1.0000
  C   C15       1.0  0.20488  0.89589  0.34764  1.0000
  C   C16       1.0  0.20485  0.81241  0.34764  1.0000
  C   C17       1.0  0.24657  0.27070  0.26549  1.0000
  C   C18       1.0  0.27419  0.24311  0.26552  1.0000
  H   H9        1.0  0.23684  0.28043  0.20498  1.0000
  H   H10       1.0  0.28393  0.23338  0.20503  1.0000
  C   C19       1.0  0.24659  0.47932  0.26549  1.0000
  C   C20       1.0  0.27417  0.03454  0.26552  1.0000
  H   H11       1.0  0.23687  0.45987  0.20498  1.0000
  H   H12       1.0  0.28391  0.05401  0.20503  1.0000
  C   C21       1.0  0.48275  0.24310  0.26552  1.0000
  H   H13       1.0  0.46327  0.23336  0.20503  1.0000
  C   C22       1.0  0.23219  0.36781  0.34764  1.0000
  H   H14       1.0  0.27235  0.38788  0.34765  1.0000
  C   C23       1.0  0.39935  0.20140  0.34776  1.0000
  C   C24       1.0  0.37127  0.14600  0.34775  1.0000
  C   C25       1.0  0.31587  0.11794  0.34776  1.0000
  C   C26       1.0  0.28855  0.14602  0.34776  1.0000
  C   C27       1.0  0.31589  0.20142  0.34776  1.0000
  C   C28       1.0  0.37129  0.22874  0.34776  1.0000
  H   H15       1.0  0.24839  0.12595  0.34774  1.0000
  H   H16       1.0  0.39138  0.26890  0.34774  1.0000
  H   H17       1.0  0.39134  0.12592  0.34774  1.0000
  C   C29       1.0  0.27418  0.24313  0.42994  1.0000
  C   C30       1.0  0.24655  0.27072  0.42991  1.0000
  C   C31       1.0  0.23245  0.28480  0.34768  1.0000
  C   C32       1.0  0.28829  0.22904  0.34774  1.0000
  H   H18       1.0  0.23681  0.28045  0.49040  1.0000
  H   H19       1.0  0.28391  0.23340  0.49045  1.0000
  C   C33       1.0  0.27416  0.03451  0.42994  1.0000
  C   C34       1.0  0.24657  0.47929  0.42990  1.0000
  C   C35       1.0  0.23250  0.45111  0.34768  1.0000
  C   C36       1.0  0.28825  0.06272  0.34774  1.0000
  H   H20       1.0  0.23684  0.45982  0.49040  1.0000
  H   H21       1.0  0.28388  0.05396  0.49045  1.0000
  C   C37       1.0  0.48278  0.24312  0.42994  1.0000
  C   C38       1.0  0.45457  0.22900  0.34774  1.0000
  H   H22       1.0  0.46332  0.23339  0.49045  1.0000
  C   C39       1.0  0.24657  0.77070  0.26549  1.0000
  C   C40       1.0  0.27419  0.74311  0.26552  1.0000
  H   H23       1.0  0.23684  0.78043  0.20498  1.0000
  H   H24       1.0  0.28393  0.73338  0.20503  1.0000
  C   C41       1.0  0.24659  0.97932  0.26549  1.0000
  C   C42       1.0  0.27417  0.53454  0.26552  1.0000
  H   H25       1.0  0.23687  0.95987  0.20498  1.0000
  H   H26       1.0  0.28390  0.55401  0.20503  1.0000
  C   C43       1.0  0.48275  0.74310  0.26552  1.0000
  H   H27       1.0  0.46327  0.73336  0.20503  1.0000
  C   C44       1.0  0.23219  0.86781  0.34764  1.0000
  H   H28       1.0  0.27235  0.88788  0.34765  1.0000
  C   C45       1.0  0.39935  0.70140  0.34776  1.0000
  C   C46       1.0  0.37127  0.64600  0.34775  1.0000
  C   C47       1.0  0.31587  0.61794  0.34776  1.0000
  C   C48       1.0  0.28855  0.64602  0.34776  1.0000
  C   C49       1.0  0.31589  0.70142  0.34776  1.0000
  C   C50       1.0  0.37129  0.72874  0.34776  1.0000
  H   H29       1.0  0.24839  0.62595  0.34774  1.0000
  H   H30       1.0  0.39137  0.76890  0.34774  1.0000
  H   H31       1.0  0.39134  0.62591  0.34774  1.0000
  C   C51       1.0  0.27418  0.74313  0.42994  1.0000
  C   C52       1.0  0.24655  0.77072  0.42991  1.0000
  C   C53       1.0  0.23245  0.78479  0.34768  1.0000
  C   C54       1.0  0.28829  0.72903  0.34774  1.0000
  H   H32       1.0  0.23681  0.78045  0.49040  1.0000
  H   H33       1.0  0.28391  0.73340  0.49045  1.0000
  C   C55       1.0  0.27416  0.53451  0.42994  1.0000
  C   C56       1.0  0.24657  0.97929  0.42990  1.0000
  C   C57       1.0  0.23249  0.95111  0.34768  1.0000
  C   C58       1.0  0.28825  0.56272  0.34774  1.0000
  H   H34       1.0  0.23684  0.95981  0.49040  1.0000
  H   H35       1.0  0.28388  0.55396  0.49045  1.0000
  C   C59       1.0  0.48278  0.74311  0.42994  1.0000
  C   C60       1.0  0.45457  0.72900  0.34774  1.0000
  H   H36       1.0  0.46332  0.73339  0.49045  1.0000
  C   C61       1.0  0.74657  0.27070  0.26549  1.0000
  C   C62       1.0  0.77419  0.24311  0.26552  1.0000
  H   H37       1.0  0.73684  0.28043  0.20498  1.0000
  H   H38       1.0  0.78394  0.23338  0.20503  1.0000
  C   C63       1.0  0.74659  0.47932  0.26549  1.0000
  C   C64       1.0  0.77417  0.03454  0.26552  1.0000
  H   H39       1.0  0.73687  0.45987  0.20498  1.0000
  H   H40       1.0  0.78390  0.05401  0.20503  1.0000
  C   C65       1.0  0.53797  0.27071  0.26549  1.0000
  C   C66       1.0  0.98275  0.24310  0.26552  1.0000
  H   H41       1.0  0.55742  0.28044  0.20498  1.0000
  H   H42       1.0  0.96328  0.23336  0.20503  1.0000
  C   C67       1.0  0.62140  0.31243  0.34764  1.0000
  C   C68       1.0  0.64948  0.36783  0.34764  1.0000
  C   C69       1.0  0.70488  0.39589  0.34764  1.0000
  C   C70       1.0  0.73219  0.36781  0.34764  1.0000
  C   C71       1.0  0.70485  0.31241  0.34764  1.0000
  C   C72       1.0  0.64945  0.28509  0.34764  1.0000
  H   H43       1.0  0.77235  0.38788  0.34765  1.0000
  H   H44       1.0  0.62937  0.24493  0.34765  1.0000
  H   H45       1.0  0.62940  0.38792  0.34765  1.0000
  C   C73       1.0  0.89935  0.20140  0.34776  1.0000
  C   C74       1.0  0.87127  0.14600  0.34775  1.0000
  C   C75       1.0  0.81587  0.11794  0.34776  1.0000
  C   C76       1.0  0.78855  0.14602  0.34776  1.0000
  C   C77       1.0  0.81589  0.20142  0.34776  1.0000
  C   C78       1.0  0.87129  0.22874  0.34776  1.0000
  H   H46       1.0  0.74839  0.12595  0.34774  1.0000
  H   H47       1.0  0.89138  0.26890  0.34774  1.0000
  H   H48       1.0  0.89134  0.12592  0.34774  1.0000
  C   C79       1.0  0.77418  0.24313  0.42994  1.0000
  C   C80       1.0  0.74655  0.27072  0.42991  1.0000
  C   C81       1.0  0.73245  0.28480  0.34768  1.0000
  C   C82       1.0  0.78829  0.22904  0.34774  1.0000
  H   H49       1.0  0.73681  0.28045  0.49040  1.0000
  H   H50       1.0  0.78391  0.23340  0.49045  1.0000
  C   C83       1.0  0.77416  0.03451  0.42994  1.0000
  C   C84       1.0  0.74657  0.47929  0.42990  1.0000
  C   C85       1.0  0.73250  0.45111  0.34768  1.0000
  C   C86       1.0  0.78825  0.06272  0.34774  1.0000
  H   H51       1.0  0.73684  0.45982  0.49040  1.0000
  H   H52       1.0  0.78388  0.05396  0.49045  1.0000
  C   C87       1.0  0.98278  0.24312  0.42994  1.0000
  C   C88       1.0  0.53800  0.27073  0.42990  1.0000
  C   C89       1.0  0.56618  0.28483  0.34768  1.0000
  C   C90       1.0  0.95457  0.22900  0.34774  1.0000
  H   H53       1.0  0.55747  0.28047  0.49040  1.0000
  H   H54       1.0  0.96333  0.23339  0.49045  1.0000
  C   C91       1.0  0.74657  0.77070  0.26549  1.0000
  C   C92       1.0  0.77419  0.74311  0.26552  1.0000
  H   H55       1.0  0.73684  0.78043  0.20498  1.0000
  H   H56       1.0  0.78393  0.73338  0.20503  1.0000
  C   C93       1.0  0.74659  0.97932  0.26549  1.0000
  C   C94       1.0  0.77417  0.53454  0.26552  1.0000
  H   H57       1.0  0.73687  0.95987  0.20498  1.0000
  H   H58       1.0  0.78390  0.55401  0.20503  1.0000
  C   C95       1.0  0.53797  0.77071  0.26549  1.0000
  C   C96       1.0  0.98275  0.74310  0.26552  1.0000
  H   H59       1.0  0.55742  0.78044  0.20498  1.0000
  H   H60       1.0  0.96327  0.73336  0.20503  1.0000
  C   C97       1.0  0.62140  0.81243  0.34764  1.0000
  C   C98       1.0  0.64948  0.86783  0.34764  1.0000
  C   C99       1.0  0.70488  0.89589  0.34764  1.0000
  C   C100      1.0  0.73219  0.86781  0.34764  1.0000
  C   C101      1.0  0.70485  0.81241  0.34764  1.0000
  C   C102      1.0  0.64945  0.78509  0.34764  1.0000
  H   H61       1.0  0.77235  0.88788  0.34765  1.0000
  H   H62       1.0  0.62937  0.74493  0.34765  1.0000
  H   H63       1.0  0.62940  0.88791  0.34765  1.0000
  C   C103      1.0  0.89935  0.70140  0.34776  1.0000
  C   C104      1.0  0.87127  0.64600  0.34775  1.0000
  C   C105      1.0  0.81587  0.61794  0.34776  1.0000
  C   C106      1.0  0.78855  0.64602  0.34776  1.0000
  C   C107      1.0  0.81589  0.70142  0.34776  1.0000
  C   C108      1.0  0.87129  0.72874  0.34776  1.0000
  H   H64       1.0  0.74839  0.62595  0.34774  1.0000
  H   H65       1.0  0.89137  0.76890  0.34774  1.0000
  H   H66       1.0  0.89134  0.62591  0.34774  1.0000
  C   C109      1.0  0.77418  0.74313  0.42994  1.0000
  C   C110      1.0  0.74655  0.77072  0.42991  1.0000
  C   C111      1.0  0.73245  0.78479  0.34768  1.0000
  C   C112      1.0  0.78829  0.72903  0.34774  1.0000
  H   H67       1.0  0.73681  0.78045  0.49040  1.0000
  H   H68       1.0  0.78391  0.73340  0.49045  1.0000
  C   C113      1.0  0.77416  0.53451  0.42994  1.0000
  C   C114      1.0  0.74657  0.97929  0.42990  1.0000
  C   C115      1.0  0.73249  0.95111  0.34768  1.0000
  C   C116      1.0  0.78825  0.56272  0.34774  1.0000
  H   H69       1.0  0.73684  0.95981  0.49040  1.0000
  H   H70       1.0  0.78388  0.55396  0.49045  1.0000
  C   C117      1.0  0.98278  0.74311  0.42994  1.0000
  C   C118      1.0  0.53800  0.77073  0.42990  1.0000
  C   C119      1.0  0.56618  0.78482  0.34768  1.0000
  C   C120      1.0  0.95457  0.72900  0.34774  1.0000
  H   H71       1.0  0.55747  0.78047  0.49040  1.0000
  H   H72       1.0  0.96333  0.73339  0.49045  1.0000
