data_image0
_chemical_formula_structural       C16H16C16H16C16H16C3H2NC3H2NC3H2NC3H2NC3H2NC3H2NC3NC3NC5NC5NC36H26C4H4C3NC3NC5NC5NC36H26C4H4C3NC3NC5NC5NC36H26C4H4C3HNH2NC3HNH2NC3HNH2NC3HNH2NC3HNH2NC3HNH2N
_chemical_formula_sum              "C252 H168 N30"
_cell_length_a       67.643
_cell_length_b       67.6431
_cell_length_c       14.8227
_cell_angle_alpha    89.7172
_cell_angle_beta     90.2828
_cell_angle_gamma    120

_space_group_name_H-M_alt    "P 1"
_space_group_IT_number       1

loop_
  _space_group_symop_operation_xyz
  'x, y, z'

loop_
  _atom_site_type_symbol
  _atom_site_label
  _atom_site_symmetry_multiplicity
  _atom_site_fract_x
  _atom_site_fract_y
  _atom_site_fract_z
  _atom_site_occupancy
  C   C1        1.0  0.13110  0.68371  0.28873  1.0000
  C   C2        1.0  0.11171  0.66170  0.28369  1.0000
  C   C3        1.0  0.16646  0.73397  0.32280  1.0000
  C   C4        1.0  0.18746  0.75466  0.32745  1.0000
  C   C5        1.0  0.13073  0.54200  0.28225  1.0000
  C   C6        1.0  0.11244  0.54640  0.27842  1.0000
  C   C7        1.0  0.19571  0.54239  0.32966  1.0000
  C   C8        1.0  0.17709  0.54625  0.32250  1.0000
  C   C9        1.0  0.96945  0.47442  0.28344  1.0000
  C   C10       1.0  0.95023  0.45232  0.28881  1.0000
  C   C11       1.0  0.89483  0.38091  0.32576  1.0000
  C   C12       1.0  0.91565  0.40178  0.32051  1.0000
  C   C13       1.0  0.96931  0.58926  0.27867  1.0000
  C   C14       1.0  0.95090  0.59344  0.28259  1.0000
  C   C15       1.0  0.90434  0.58851  0.32297  1.0000
  C   C16       1.0  0.88555  0.59206  0.33014  1.0000
  H   H1        1.0  0.87088  0.58131  0.29601  1.0000
  H   H2        1.0  0.90251  0.57513  0.28476  1.0000
  H   H3        1.0  0.94260  0.59283  0.22388  1.0000
  H   H4        1.0  0.97355  0.58527  0.21794  1.0000
  H   H5        1.0  0.97469  0.48200  0.22152  1.0000
  H   H6        1.0  0.94198  0.44459  0.23023  1.0000
  H   H7        1.0  0.10815  0.55052  0.21771  1.0000
  H   H8        1.0  0.13889  0.54260  0.22351  1.0000
  H   H9        1.0  0.17906  0.55978  0.28446  1.0000
  H   H10       1.0  0.21040  0.55309  0.29567  1.0000
  H   H11       1.0  0.10578  0.65453  0.22167  1.0000
  H   H12       1.0  0.13875  0.69179  0.22980  1.0000
  H   H13       1.0  0.18976  0.76786  0.28647  1.0000
  H   H14       1.0  0.15420  0.73297  0.27929  1.0000
  H   H15       1.0  0.92744  0.40331  0.27387  1.0000
  H   H16       1.0  0.89217  0.36815  0.28205  1.0000
  C   C17       1.0  0.42388  0.53967  0.29120  1.0000
  C   C18       1.0  0.44587  0.54227  0.28645  1.0000
  C   C19       1.0  0.37358  0.52467  0.32450  1.0000
  C   C20       1.0  0.35289  0.52496  0.32875  1.0000
  C   C21       1.0  0.56554  0.68102  0.28597  1.0000
  C   C22       1.0  0.56114  0.65835  0.28207  1.0000
  C   C23       1.0  0.56515  0.74551  0.33341  1.0000
  C   C24       1.0  0.56128  0.72304  0.32630  1.0000
  C   C25       1.0  0.63304  0.58732  0.28626  1.0000
  C   C26       1.0  0.65515  0.59018  0.29130  1.0000
  C   C27       1.0  0.72659  0.60614  0.32703  1.0000
  C   C28       1.0  0.70572  0.60610  0.32216  1.0000
  C   C29       1.0  0.51827  0.47234  0.28227  1.0000
  C   C30       1.0  0.51410  0.44974  0.28624  1.0000
  C   C31       1.0  0.51904  0.40804  0.32669  1.0000
  C   C32       1.0  0.51548  0.38567  0.33390  1.0000
  H   H17       1.0  0.52623  0.38182  0.29978  1.0000
  H   H18       1.0  0.53241  0.41965  0.28847  1.0000
  H   H19       1.0  0.51471  0.44217  0.22755  1.0000
  H   H20       1.0  0.52228  0.48070  0.22154  1.0000
  H   H21       1.0  0.62539  0.58505  0.22447  1.0000
  H   H22       1.0  0.66282  0.58977  0.23260  1.0000
  H   H23       1.0  0.55702  0.65007  0.22135  1.0000
  H   H24       1.0  0.56496  0.68872  0.22723  1.0000
  H   H25       1.0  0.54777  0.71158  0.28813  1.0000
  H   H26       1.0  0.55447  0.74958  0.29933  1.0000
  H   H27       1.0  0.45311  0.54369  0.22452  1.0000
  H   H28       1.0  0.41583  0.53936  0.23215  1.0000
  H   H29       1.0  0.33973  0.51418  0.28755  1.0000
  H   H30       1.0  0.37463  0.51353  0.28101  1.0000
  H   H31       1.0  0.70413  0.61643  0.27554  1.0000
  H   H32       1.0  0.73930  0.61631  0.28307  1.0000
  C   C33       1.0  0.56787  0.97645  0.29436  1.0000
  C   C34       1.0  0.56527  0.99585  0.28947  1.0000
  C   C35       1.0  0.58288  0.94110  0.32794  1.0000
  C   C36       1.0  0.58259  0.92011  0.33232  1.0000
  C   C37       1.0  0.42660  0.97688  0.28694  1.0000
  C   C38       1.0  0.44928  0.99516  0.28358  1.0000
  C   C39       1.0  0.36206  0.91185  0.33266  1.0000
  C   C40       1.0  0.38453  0.93047  0.32606  1.0000
  C   C41       1.0  0.52020  0.13802  0.28931  1.0000
  C   C42       1.0  0.51736  0.15726  0.29451  1.0000
  C   C43       1.0  0.50139  0.21264  0.33058  1.0000
  C   C44       1.0  0.50143  0.19183  0.32562  1.0000
  C   C45       1.0  0.63509  0.13812  0.28373  1.0000
  C   C46       1.0  0.65769  0.15655  0.28720  1.0000
  C   C47       1.0  0.69944  0.20314  0.32649  1.0000
  C   C48       1.0  0.72182  0.22194  0.33316  1.0000
  H   H33       1.0  0.72563  0.23657  0.29873  1.0000
  H   H34       1.0  0.68778  0.20493  0.28839  1.0000
  H   H35       1.0  0.66520  0.16478  0.22832  1.0000
  H   H36       1.0  0.62667  0.13382  0.22314  1.0000
  H   H37       1.0  0.52246  0.13279  0.22745  1.0000
  H   H38       1.0  0.51775  0.16548  0.23585  1.0000
  H   H39       1.0  0.45762  0.99953  0.22300  1.0000
  H   H40       1.0  0.41897  0.96879  0.22801  1.0000
  H   H41       1.0  0.39604  0.92855  0.28810  1.0000
  H   H42       1.0  0.35803  0.89720  0.29841  1.0000
  H   H43       1.0  0.56389  0.00181  0.22750  1.0000
  H   H44       1.0  0.56822  0.96885  0.23535  1.0000
  H   H45       1.0  0.59338  0.91782  0.29118  1.0000
  H   H46       1.0  0.59403  0.95338  0.28447  1.0000
  H   H47       1.0  0.49111  0.18003  0.27894  1.0000
  H   H48       1.0  0.49122  0.21529  0.28664  1.0000
  C   C49       1.0  0.28531  0.53576  0.27844  1.0000
  C   C50       1.0  0.26497  0.53666  0.27891  1.0000
  C   C51       1.0  0.25047  0.52927  0.35467  1.0000
  H   H49       1.0  0.29549  0.54134  0.22244  1.0000
  H   H50       1.0  0.26076  0.54276  0.22306  1.0000
  N   N1        1.0  0.23158  0.53098  0.35144  1.0000
  C   C52       1.0  0.57178  0.84184  0.28218  1.0000
  C   C53       1.0  0.57087  0.82059  0.28267  1.0000
  C   C54       1.0  0.57828  0.81334  0.35840  1.0000
  H   H51       1.0  0.56617  0.84655  0.22620  1.0000
  H   H52       1.0  0.56476  0.81040  0.22683  1.0000
  N   N2        1.0  0.57656  0.79274  0.35520  1.0000
  C   C55       1.0  0.26575  0.82235  0.27885  1.0000
  C   C56       1.0  0.28701  0.84269  0.27989  1.0000
  C   C57       1.0  0.29419  0.85707  0.35599  1.0000
  H   H53       1.0  0.26110  0.81225  0.22263  1.0000
  H   H54       1.0  0.29725  0.84698  0.22420  1.0000
  N   N3        1.0  0.31478  0.87597  0.35330  1.0000
  C   C58       1.0  0.79478  0.59672  0.28049  1.0000
  C   C59       1.0  0.81531  0.59615  0.28096  1.0000
  C   C60       1.0  0.83014  0.60405  0.35598  1.0000
  H   H55       1.0  0.78437  0.59078  0.22502  1.0000
  H   H56       1.0  0.81939  0.58993  0.22563  1.0000
  N   N4        1.0  0.84919  0.60265  0.35278  1.0000
  C   C61       1.0  0.51081  0.29035  0.28423  1.0000
  C   C62       1.0  0.51138  0.31145  0.28471  1.0000
  C   C63       1.0  0.50349  0.31822  0.35975  1.0000
  H   H57       1.0  0.51675  0.28600  0.22874  1.0000
  H   H58       1.0  0.51760  0.32187  0.22938  1.0000
  N   N5        1.0  0.50489  0.33868  0.35656  1.0000
  C   C64       1.0  0.81708  0.31262  0.28095  1.0000
  C   C65       1.0  0.79599  0.29210  0.28199  1.0000
  C   C66       1.0  0.78931  0.27736  0.35730  1.0000
  H   H59       1.0  0.82136  0.32297  0.22530  1.0000
  H   H60       1.0  0.78549  0.28794  0.22685  1.0000
  N   N6        1.0  0.76884  0.25831  0.35465  1.0000
  C   C67       1.0  0.02969  0.62458  0.35498  1.0000
  C   C68       1.0  0.05330  0.63624  0.35614  1.0000
  C   C69       1.0  0.06063  0.62025  0.35659  1.0000
  N   N7        1.0  0.04123  0.59957  0.35569  1.0000
  C   C70       1.0  0.02200  0.60118  0.35529  1.0000
  C   C71       1.0  0.99866  0.58357  0.35561  1.0000
  C   C72       1.0  0.99110  0.55980  0.35671  1.0000
  N   N8        1.0  0.00385  0.54950  0.35541  1.0000
  C   C73       1.0  0.99084  0.52647  0.35818  1.0000
  C   C74       1.0  0.96823  0.52171  0.36135  1.0000
  C   C75       1.0  0.96839  0.54218  0.36049  1.0000
  C   C76       1.0  0.99808  0.51001  0.35828  1.0000
  C   C77       1.0  0.02131  0.51541  0.35659  1.0000
  N   N9        1.0  0.04071  0.53609  0.35601  1.0000
  C   C78       1.0  0.05993  0.53449  0.35523  1.0000
  C   C79       1.0  0.05224  0.51108  0.35447  1.0000
  C   C80       1.0  0.02864  0.49943  0.35555  1.0000
  C   C81       1.0  0.08328  0.55209  0.35540  1.0000
  C   C82       1.0  0.09084  0.57585  0.35635  1.0000
  N   N10       1.0  0.07809  0.58616  0.35539  1.0000
  C   C83       1.0  0.09110  0.60918  0.35788  1.0000
  C   C84       1.0  0.11372  0.61394  0.36036  1.0000
  C   C85       1.0  0.11356  0.59347  0.35957  1.0000
  C   C86       1.0  0.08386  0.62564  0.35830  1.0000
  C   C87       1.0  0.10134  0.64912  0.36292  1.0000
  C   C88       1.0  0.11059  0.65926  0.44721  1.0000
  C   C89       1.0  0.13003  0.68118  0.45197  1.0000
  C   C90       1.0  0.14098  0.69372  0.37292  1.0000
  C   C91       1.0  0.16205  0.71504  0.37799  1.0000
  C   C92       1.0  0.20505  0.75722  0.38695  1.0000
  C   C93       1.0  0.20064  0.73824  0.44174  1.0000
  C   C94       1.0  0.17966  0.71766  0.43740  1.0000
  C   C95       1.0  0.10048  0.54566  0.35741  1.0000
  C   C96       1.0  0.10720  0.54033  0.44012  1.0000
  C   C97       1.0  0.12539  0.53583  0.44360  1.0000
  C   C98       1.0  0.13764  0.53667  0.36492  1.0000
  C   C99       1.0  0.15642  0.53244  0.36946  1.0000
  C   C100      1.0  0.15508  0.51440  0.42277  1.0000
  C   C101      1.0  0.17361  0.51048  0.42967  1.0000
  C   C102      1.0  0.19438  0.52443  0.38368  1.0000
  C   C103      1.0  0.98063  0.48652  0.36250  1.0000
  C   C104      1.0  0.94135  0.44169  0.37322  1.0000
  C   C105      1.0  0.95309  0.45376  0.45194  1.0000
  C   C106      1.0  0.97236  0.47581  0.44685  1.0000
  C   C107      1.0  0.92050  0.42017  0.37908  1.0000
  C   C108      1.0  0.90353  0.41679  0.44271  1.0000
  C   C109      1.0  0.88273  0.39604  0.44772  1.0000
  C   C110      1.0  0.87787  0.37762  0.38938  1.0000
  C   C111      1.0  0.98144  0.58997  0.35763  1.0000
  C   C112      1.0  0.97476  0.59506  0.44039  1.0000
  C   C113      1.0  0.95644  0.59936  0.44395  1.0000
  C   C114      1.0  0.94400  0.59851  0.36532  1.0000
  C   C115      1.0  0.92503  0.60242  0.36997  1.0000
  C   C116      1.0  0.88670  0.60981  0.38428  1.0000
  C   C117      1.0  0.90749  0.62386  0.43040  1.0000
  C   C118      1.0  0.92618  0.62025  0.42347  1.0000
  H   H61       1.0  0.90926  0.63697  0.47032  1.0000
  H   H62       1.0  0.94085  0.63103  0.45760  1.0000
  H   H63       1.0  0.95176  0.60237  0.50565  1.0000
  H   H64       1.0  0.98286  0.59516  0.49906  1.0000
  H   H65       1.0  0.01993  0.63222  0.35476  1.0000
  H   H66       1.0  0.06328  0.65362  0.35666  1.0000
  H   H67       1.0  0.04111  0.58532  0.35670  1.0000
  H   H68       1.0  0.04083  0.55034  0.35751  1.0000
  H   H69       1.0  0.95409  0.54365  0.36316  1.0000
  H   H70       1.0  0.95379  0.50604  0.36441  1.0000
  H   H71       1.0  0.97981  0.48431  0.50536  1.0000
  H   H72       1.0  0.94744  0.44677  0.51444  1.0000
  H   H73       1.0  0.01866  0.48205  0.35552  1.0000
  H   H74       1.0  0.06200  0.50344  0.35365  1.0000
  H   H75       1.0  0.12817  0.62961  0.36292  1.0000
  H   H76       1.0  0.12787  0.59199  0.36180  1.0000
  H   H77       1.0  0.09921  0.54019  0.49879  1.0000
  H   H78       1.0  0.13008  0.53262  0.50525  1.0000
  H   H79       1.0  0.17171  0.49723  0.46951  1.0000
  H   H80       1.0  0.14041  0.50368  0.45686  1.0000
  H   H81       1.0  0.17761  0.70434  0.47703  1.0000
  H   H82       1.0  0.21281  0.73912  0.48557  1.0000
  H   H83       1.0  0.13643  0.68773  0.51434  1.0000
  H   H84       1.0  0.10375  0.65038  0.50573  1.0000
  H   H85       1.0  0.90589  0.42971  0.48506  1.0000
  H   H86       1.0  0.87102  0.39462  0.49464  1.0000
  C   C119      1.0  0.22618  0.77732  0.39368  1.0000
  C   C120      1.0  0.21256  0.52029  0.39467  1.0000
  C   C121      1.0  0.85689  0.35737  0.39652  1.0000
  C   C122      1.0  0.86837  0.61368  0.39515  1.0000
  H   H87       1.0  0.23781  0.77747  0.43578  1.0000
  H   H88       1.0  0.87034  0.62587  0.43770  1.0000
  H   H89       1.0  0.84547  0.35687  0.44014  1.0000
  H   H90       1.0  0.21059  0.50817  0.43803  1.0000
  C   C123      1.0  0.48295  0.49724  0.35838  1.0000
  C   C124      1.0  0.47129  0.50918  0.35944  1.0000
  C   C125      1.0  0.48728  0.53250  0.35993  1.0000
  N   N11       1.0  0.50795  0.53377  0.35914  1.0000
  C   C126      1.0  0.50636  0.51295  0.35876  1.0000
  C   C127      1.0  0.52396  0.50721  0.35913  1.0000
  C   C128      1.0  0.54773  0.52342  0.36016  1.0000
  N   N12       1.0  0.55803  0.54648  0.35883  1.0000
  C   C129      1.0  0.58106  0.55650  0.36151  1.0000
  C   C130      1.0  0.58583  0.53865  0.36463  1.0000
  C   C131      1.0  0.56536  0.51833  0.36395  1.0000
  C   C132      1.0  0.59752  0.58020  0.36158  1.0000
  C   C133      1.0  0.59211  0.59802  0.36002  1.0000
  N   N13       1.0  0.57143  0.59675  0.35956  1.0000
  C   C134      1.0  0.57303  0.61757  0.35881  1.0000
  C   C135      1.0  0.59643  0.63329  0.35806  1.0000
  C   C136      1.0  0.60809  0.62134  0.35903  1.0000
  C   C137      1.0  0.55543  0.62332  0.35898  1.0000
  C   C138      1.0  0.53167  0.60711  0.35990  1.0000
  N   N14       1.0  0.52137  0.58405  0.35889  1.0000
  C   C139      1.0  0.49834  0.57403  0.36126  1.0000
  C   C140      1.0  0.49358  0.59188  0.36371  1.0000
  C   C141      1.0  0.51405  0.61220  0.36304  1.0000
  C   C142      1.0  0.48188  0.55033  0.36156  1.0000
  C   C143      1.0  0.45839  0.54431  0.36585  1.0000
  C   C144      1.0  0.44818  0.54320  0.45001  1.0000
  C   C145      1.0  0.42626  0.54073  0.45445  1.0000
  C   C146      1.0  0.41378  0.53930  0.37524  1.0000
  C   C147      1.0  0.39246  0.53905  0.37997  1.0000
  C   C148      1.0  0.35026  0.53984  0.38818  1.0000
  C   C149      1.0  0.36918  0.55426  0.44330  1.0000
  C   C150      1.0  0.38977  0.55387  0.43932  1.0000
  C   C151      1.0  0.56185  0.64693  0.36106  1.0000
  C   C152      1.0  0.56717  0.65879  0.44381  1.0000
  C   C153      1.0  0.57168  0.68148  0.44733  1.0000
  C   C154      1.0  0.57086  0.69307  0.36867  1.0000
  C   C155      1.0  0.57508  0.71607  0.37324  1.0000
  C   C156      1.0  0.59312  0.73265  0.42661  1.0000
  C   C157      1.0  0.59705  0.75508  0.43349  1.0000
  C   C158      1.0  0.58312  0.76202  0.38744  1.0000
  C   C159      1.0  0.62102  0.58623  0.36552  1.0000
  C   C160      1.0  0.66587  0.59180  0.37554  1.0000
  C   C161      1.0  0.65386  0.59131  0.45445  1.0000
  C   C162      1.0  0.63181  0.58854  0.44971  1.0000
  C   C163      1.0  0.68739  0.59246  0.38104  1.0000
  C   C164      1.0  0.69084  0.57876  0.44460  1.0000
  C   C165      1.0  0.71160  0.57871  0.44925  1.0000
  C   C166      1.0  0.72995  0.59236  0.39057  1.0000
  C   C167      1.0  0.51757  0.48360  0.36121  1.0000
  C   C168      1.0  0.51248  0.47165  0.44399  1.0000
  C   C169      1.0  0.50820  0.44903  0.44761  1.0000
  C   C170      1.0  0.50904  0.43760  0.36900  1.0000
  C   C171      1.0  0.50512  0.41471  0.37369  1.0000
  C   C172      1.0  0.49773  0.36896  0.38807  1.0000
  C   C173      1.0  0.48368  0.37559  0.43417  1.0000
  C   C174      1.0  0.48730  0.39793  0.42721  1.0000
  H   H91       1.0  0.47058  0.36417  0.47411  1.0000
  H   H92       1.0  0.47651  0.40174  0.46134  1.0000
  H   H93       1.0  0.50517  0.44121  0.50930  1.0000
  H   H94       1.0  0.51238  0.47953  0.50264  1.0000
  H   H95       1.0  0.47531  0.47983  0.35815  1.0000
  H   H96       1.0  0.45391  0.50178  0.35988  1.0000
  H   H97       1.0  0.52220  0.54791  0.36020  1.0000
  H   H98       1.0  0.55719  0.58261  0.36091  1.0000
  H   H99       1.0  0.56389  0.50256  0.36664  1.0000
  H   H100      1.0  0.60150  0.53988  0.36777  1.0000
  H   H101      1.0  0.62335  0.58736  0.50835  1.0000
  H   H102      1.0  0.66092  0.59255  0.51685  1.0000
  H   H103      1.0  0.62548  0.62875  0.35892  1.0000
  H   H104      1.0  0.60408  0.65069  0.35722  1.0000
  H   H105      1.0  0.47791  0.59066  0.36614  1.0000
  H   H106      1.0  0.51552  0.62798  0.36521  1.0000
  H   H107      1.0  0.56732  0.65081  0.50246  1.0000
  H   H108      1.0  0.57490  0.68924  0.50899  1.0000
  H   H109      1.0  0.61030  0.76635  0.47333  1.0000
  H   H110      1.0  0.60384  0.72862  0.46068  1.0000
  H   H111      1.0  0.40305  0.56504  0.47917  1.0000
  H   H112      1.0  0.36826  0.56544  0.48709  1.0000
  H   H113      1.0  0.41966  0.54043  0.51673  1.0000
  H   H114      1.0  0.45703  0.54515  0.50864  1.0000
  H   H115      1.0  0.67798  0.56815  0.48720  1.0000
  H   H116      1.0  0.71308  0.56835  0.49614  1.0000
  C   C175      1.0  0.33016  0.54087  0.39449  1.0000
  C   C176      1.0  0.58727  0.78432  0.39836  1.0000
  C   C177      1.0  0.75021  0.59162  0.39730  1.0000
  C   C178      1.0  0.49387  0.34674  0.39896  1.0000
  H   H117      1.0  0.32996  0.55222  0.43665  1.0000
  H   H118      1.0  0.48169  0.33644  0.44157  1.0000
  H   H119      1.0  0.75077  0.58065  0.44100  1.0000
  H   H120      1.0  0.59942  0.79439  0.44163  1.0000
  C   C179      1.0  0.61029  0.07783  0.36090  1.0000
  C   C180      1.0  0.59835  0.05422  0.36216  1.0000
  C   C181      1.0  0.57503  0.04688  0.36267  1.0000
  N   N15       1.0  0.57375  0.06629  0.36176  1.0000
  C   C182      1.0  0.59457  0.08551  0.36117  1.0000
  C   C183      1.0  0.60031  0.10886  0.36129  1.0000
  C   C184      1.0  0.58410  0.11642  0.36246  1.0000
  N   N16       1.0  0.56105  0.10366  0.36132  1.0000
  C   C185      1.0  0.55103  0.11667  0.36415  1.0000
  C   C186      1.0  0.56888  0.13928  0.36723  1.0000
  C   C187      1.0  0.58919  0.13912  0.36621  1.0000
  C   C188      1.0  0.52733  0.10943  0.36435  1.0000
  C   C189      1.0  0.50950  0.08620  0.36264  1.0000
  N   N17       1.0  0.51078  0.06680  0.36209  1.0000
  C   C190      1.0  0.48996  0.04758  0.36116  1.0000
  C   C191      1.0  0.47424  0.05526  0.36032  1.0000
  C   C192      1.0  0.48618  0.07886  0.36151  1.0000
  C   C193      1.0  0.48421  0.02423  0.36127  1.0000
  C   C194      1.0  0.50042  0.01667  0.36234  1.0000
  N   N18       1.0  0.52347  0.02942  0.36149  1.0000
  C   C195      1.0  0.53349  0.01641  0.36394  1.0000
  C   C196      1.0  0.51564  0.99379  0.36630  1.0000
  C   C197      1.0  0.49533  0.99395  0.36543  1.0000
  C   C198      1.0  0.55719  0.02365  0.36435  1.0000
  C   C199      1.0  0.56321  0.00618  0.36878  1.0000
  C   C200      1.0  0.56430  0.99691  0.45301  1.0000
  C   C201      1.0  0.56678  0.97746  0.45759  1.0000
  C   C202      1.0  0.56822  0.96655  0.37846  1.0000
  C   C203      1.0  0.56849  0.94548  0.38335  1.0000
  C   C204      1.0  0.56770  0.90248  0.39175  1.0000
  C   C205      1.0  0.55327  0.90687  0.44678  1.0000
  C   C206      1.0  0.55366  0.92785  0.44270  1.0000
  C   C207      1.0  0.46060  0.00702  0.36286  1.0000
  C   C208      1.0  0.44864  0.00021  0.44536  1.0000
  C   C209      1.0  0.42594  0.98202  0.44836  1.0000
  C   C210      1.0  0.41444  0.96987  0.36940  1.0000
  C   C211      1.0  0.39145  0.95108  0.37343  1.0000
  C   C212      1.0  0.37479  0.95235  0.42660  1.0000
  C   C213      1.0  0.35235  0.93382  0.43297  1.0000
  C   C214      1.0  0.34548  0.91311  0.38654  1.0000
  C   C215      1.0  0.52130  0.12688  0.36846  1.0000
  C   C216      1.0  0.51574  0.16615  0.37883  1.0000
  C   C217      1.0  0.51624  0.15443  0.45765  1.0000
  C   C218      1.0  0.51902  0.13518  0.45273  1.0000
  C   C219      1.0  0.51506  0.18699  0.38448  1.0000
  C   C220      1.0  0.52874  0.20398  0.44814  1.0000
  C   C221      1.0  0.52880  0.22478  0.45286  1.0000
  C   C222      1.0  0.51516  0.22962  0.39421  1.0000
  C   C223      1.0  0.62392  0.12608  0.36295  1.0000
  C   C224      1.0  0.63597  0.13285  0.44551  1.0000
  C   C225      1.0  0.65860  0.15119  0.44863  1.0000
  C   C226      1.0  0.66993  0.16354  0.36974  1.0000
  C   C227      1.0  0.69282  0.18252  0.37391  1.0000
  C   C228      1.0  0.73860  0.22085  0.38713  1.0000
  C   C229      1.0  0.73201  0.20013  0.43366  1.0000
  C   C230      1.0  0.70967  0.18143  0.42725  1.0000
  H   H121      1.0  0.74348  0.19841  0.47348  1.0000
  H   H122      1.0  0.70590  0.16681  0.46167  1.0000
  H   H123      1.0  0.66647  0.15594  0.51019  1.0000
  H   H124      1.0  0.62815  0.12483  0.50435  1.0000
  H   H125      1.0  0.62769  0.08759  0.36050  1.0000
  H   H126      1.0  0.60575  0.04424  0.36261  1.0000
  H   H127      1.0  0.55962  0.06640  0.36261  1.0000
  H   H128      1.0  0.52491  0.06668  0.36368  1.0000
  H   H129      1.0  0.60497  0.15342  0.36897  1.0000
  H   H130      1.0  0.56765  0.15371  0.37047  1.0000
  H   H131      1.0  0.52018  0.12773  0.51130  1.0000
  H   H132      1.0  0.51500  0.16009  0.52008  1.0000
  H   H133      1.0  0.47878  0.08884  0.36145  1.0000
  H   H134      1.0  0.45684  0.04551  0.35946  1.0000
  H   H135      1.0  0.51686  0.97934  0.36870  1.0000
  H   H136      1.0  0.47954  0.97964  0.36748  1.0000
  H   H137      1.0  0.45655  0.00813  0.50422  1.0000
  H   H138      1.0  0.41811  0.97725  0.50986  1.0000
  H   H139      1.0  0.34104  0.93566  0.47271  1.0000
  H   H140      1.0  0.37878  0.96697  0.46096  1.0000
  H   H141      1.0  0.54248  0.92987  0.48248  1.0000
  H   H142      1.0  0.54209  0.89468  0.49058  1.0000
  H   H143      1.0  0.56705  0.97103  0.51992  1.0000
  H   H144      1.0  0.56233  0.00369  0.51158  1.0000
  H   H145      1.0  0.53937  0.20164  0.49064  1.0000
  H   H146      1.0  0.53917  0.23651  0.49976  1.0000
  C   C231      1.0  0.56667  0.88134  0.39815  1.0000
  C   C232      1.0  0.32317  0.89492  0.39701  1.0000
  C   C233      1.0  0.51591  0.25061  0.40100  1.0000
  C   C234      1.0  0.76083  0.23919  0.39743  1.0000
  H   H147      1.0  0.55533  0.86971  0.44032  1.0000
  H   H148      1.0  0.77119  0.23727  0.43990  1.0000
  H   H149      1.0  0.52688  0.26204  0.44471  1.0000
  H   H150      1.0  0.31307  0.89682  0.44036  1.0000
  C   C235      1.0  0.25714  0.52117  0.43055  1.0000
  C   C236      1.0  0.27751  0.52001  0.43150  1.0000
  C   C237      1.0  0.29196  0.52778  0.35443  1.0000
  H   H151      1.0  0.24704  0.51610  0.48670  1.0000
  N   N19       1.0  0.28252  0.51141  0.50571  1.0000
  H   H152      1.0  0.27232  0.50587  0.55737  1.0000
  H   H153      1.0  0.29580  0.50946  0.50791  1.0000
  N   N20       1.0  0.31174  0.52787  0.35009  1.0000
  C   C238      1.0  0.58639  0.82795  0.43427  1.0000
  C   C239      1.0  0.58754  0.84947  0.43520  1.0000
  C   C240      1.0  0.57976  0.85631  0.35815  1.0000
  H   H154      1.0  0.59147  0.82280  0.49040  1.0000
  N   N21       1.0  0.59614  0.86292  0.50940  1.0000
  H   H155      1.0  0.60165  0.85814  0.56114  1.0000
  H   H156      1.0  0.59804  0.87813  0.51170  1.0000
  N   N22       1.0  0.57968  0.87601  0.35378  1.0000
  C   C241      1.0  0.27949  0.85030  0.43162  1.0000
  C   C242      1.0  0.25797  0.82992  0.43200  1.0000
  C   C243      1.0  0.25121  0.81558  0.35460  1.0000
  H   H157      1.0  0.28458  0.86031  0.48801  1.0000
  N   N23       1.0  0.24444  0.82479  0.50602  1.0000
  H   H158      1.0  0.24915  0.83491  0.55793  1.0000
  H   H159      1.0  0.22921  0.81150  0.50785  1.0000
  N   N24       1.0  0.23152  0.79581  0.34977  1.0000
  C   C244      1.0  0.82363  0.61232  0.43115  1.0000
  C   C245      1.0  0.80308  0.61314  0.43206  1.0000
  C   C246      1.0  0.78829  0.60486  0.35577  1.0000
  H   H160      1.0  0.83398  0.61776  0.48677  1.0000
  N   N25       1.0  0.79824  0.62194  0.50547  1.0000
  H   H161      1.0  0.80868  0.62785  0.55656  1.0000
  H   H162      1.0  0.78485  0.62370  0.50751  1.0000
  N   N26       1.0  0.76836  0.60447  0.35137  1.0000
  C   C247      1.0  0.49523  0.30328  0.43492  1.0000
  C   C248      1.0  0.49440  0.28191  0.43582  1.0000
  C   C249      1.0  0.50269  0.27556  0.35952  1.0000
  H   H163      1.0  0.48978  0.30806  0.49056  1.0000
  N   N27       1.0  0.48561  0.26810  0.50923  1.0000
  H   H164      1.0  0.47970  0.27252  0.56033  1.0000
  H   H165      1.0  0.48385  0.25295  0.51126  1.0000
  N   N28       1.0  0.50307  0.25603  0.35508  1.0000
  C   C250      1.0  0.80435  0.28398  0.43220  1.0000
  C   C251      1.0  0.82571  0.30453  0.43256  1.0000
  C   C252      1.0  0.83196  0.31922  0.35598  1.0000
  H   H166      1.0  0.79963  0.27370  0.48804  1.0000
  N   N29       1.0  0.83960  0.30948  0.50575  1.0000
  H   H167      1.0  0.83522  0.29914  0.55715  1.0000
  H   H168      1.0  0.85473  0.32291  0.50755  1.0000
  N   N30       1.0  0.85148  0.33914  0.35108  1.0000
