data_image0
_chemical_formula_structural       C14H12C7NC12H12C2NC3NC3NC15H14CNHCNHCNHCNHCNHCNHC3NC2NC5NC3NC17H14CNC2NC4NC18H14C2NC19H12C3NCH3C3NCH3C3NCH3C3NCH3C3NCH3C3NCH3
_chemical_formula_sum              "C162 H102 N24"
_cell_length_a       41.6181
_cell_length_b       41.6181
_cell_length_c       14.9785
_cell_angle_alpha    90.0374
_cell_angle_beta     89.9626
_cell_angle_gamma    120

_space_group_name_H-M_alt    "P 1"
_space_group_IT_number       1

loop_
  _space_group_symop_operation_xyz
  'x, y, z'

loop_
  _atom_site_type_symbol
  _atom_site_label
  _atom_site_symmetry_multiplicity
  _atom_site_fract_x
  _atom_site_fract_y
  _atom_site_fract_z
  _atom_site_occupancy
  C   C1        1.0  0.95080  0.54882  0.34245  1.0000
  C   C2        1.0  0.10116  0.53858  0.33128  1.0000
  C   C3        1.0  0.11247  0.57669  0.34285  1.0000
  C   C4        1.0  0.14807  0.63820  0.36231  1.0000
  C   C5        1.0  0.14836  0.60521  0.36226  1.0000
  C   C6        1.0  0.17359  0.75027  0.25760  1.0000
  C   C7        1.0  0.14347  0.71368  0.25601  1.0000
  C   C8        1.0  0.12944  0.52860  0.32955  1.0000
  C   C9        1.0  0.18694  0.53596  0.26547  1.0000
  C   C10       1.0  0.15672  0.54217  0.26168  1.0000
  C   C11       1.0  0.92002  0.41174  0.25587  1.0000
  C   C12       1.0  0.89000  0.37511  0.25750  1.0000
  C   C13       1.0  0.90662  0.58329  0.26127  1.0000
  C   C14       1.0  0.87628  0.58932  0.26499  1.0000
  H   H1        1.0  0.85608  0.57726  0.21723  1.0000
  H   H2        1.0  0.90778  0.56733  0.21070  1.0000
  H   H3        1.0  0.99566  0.66409  0.28835  1.0000
  H   H4        1.0  0.92950  0.42475  0.19565  1.0000
  H   H5        1.0  0.87847  0.36266  0.19788  1.0000
  H   H6        1.0  0.06767  0.46151  0.28763  1.0000
  H   H7        1.0  0.17088  0.66367  0.37315  1.0000
  H   H8        1.0  0.17140  0.60300  0.37342  1.0000
  H   H9        1.0  0.15569  0.55820  0.21117  1.0000
  H   H10       1.0  0.20718  0.54794  0.21775  1.0000
  H   H11       1.0  0.13398  0.70065  0.19582  1.0000
  H   H12       1.0  0.18523  0.76261  0.19798  1.0000
  C   C15       1.0  0.44156  0.45231  0.29882  1.0000
  C   C16       1.0  0.44702  0.50823  0.32165  1.0000
  C   C17       1.0  0.54502  0.49485  0.34226  1.0000
  C   C18       1.0  0.61523  0.61530  0.32220  1.0000
  C   C19       1.0  0.62072  0.67123  0.29967  1.0000
  C   C20       1.0  0.55530  0.65546  0.33098  1.0000
  C   C21       1.0  0.51719  0.62865  0.34236  1.0000
  N   N1        1.0  0.50089  0.59144  0.33260  1.0000
  C   C22       1.0  0.45569  0.60272  0.36215  1.0000
  C   C23       1.0  0.48867  0.63600  0.36199  1.0000
  C   C24       1.0  0.34360  0.51617  0.25738  1.0000
  C   C25       1.0  0.38016  0.52257  0.25567  1.0000
  C   C26       1.0  0.56527  0.69372  0.32925  1.0000
  C   C27       1.0  0.57858  0.76801  0.33566  1.0000
  C   C28       1.0  0.55789  0.74381  0.26513  1.0000
  C   C29       1.0  0.55166  0.70737  0.26143  1.0000
  C   C30       1.0  0.68212  0.60101  0.25561  1.0000
  C   C31       1.0  0.71875  0.60761  0.25731  1.0000
  C   C32       1.0  0.51062  0.41619  0.26091  1.0000
  C   C33       1.0  0.50457  0.37982  0.26473  1.0000
  H   H13       1.0  0.51667  0.37165  0.21709  1.0000
  H   H14       1.0  0.52665  0.43329  0.21042  1.0000
  H   H15       1.0  0.42983  0.42447  0.28723  1.0000
  H   H16       1.0  0.66914  0.59749  0.19538  1.0000
  H   H17       1.0  0.73123  0.60854  0.19772  1.0000
  H   H18       1.0  0.63242  0.69903  0.28763  1.0000
  H   H19       1.0  0.43023  0.60004  0.37328  1.0000
  H   H20       1.0  0.49090  0.66124  0.37354  1.0000
  H   H21       1.0  0.53564  0.69029  0.21089  1.0000
  H   H22       1.0  0.54586  0.75202  0.21749  1.0000
  H   H23       1.0  0.39318  0.52613  0.19543  1.0000
  H   H24       1.0  0.33121  0.51540  0.19781  1.0000
  C   C34       1.0  0.64169  0.08214  0.30001  1.0000
  C   C35       1.0  0.58570  0.03169  0.32220  1.0000
  N   N2        1.0  0.58335  0.06285  0.33161  1.0000
  C   C36       1.0  0.62589  0.13180  0.33085  1.0000
  C   C37       1.0  0.59909  0.14312  0.34224  1.0000
  C   C38       1.0  0.47862  0.09290  0.32230  1.0000
  N   N3        1.0  0.48093  0.06174  0.33191  1.0000
  C   C39       1.0  0.42263  0.04244  0.30017  1.0000
  C   C40       1.0  0.43842  0.99278  0.33082  1.0000
  C   C41       1.0  0.46521  0.98144  0.34192  1.0000
  N   N4        1.0  0.50243  0.00235  0.33241  1.0000
  C   C42       1.0  0.49111  0.94583  0.36133  1.0000
  C   C43       1.0  0.45784  0.94554  0.36121  1.0000
  C   C44       1.0  0.56815  0.96641  0.33582  1.0000
  C   C45       1.0  0.58031  0.90469  0.33903  1.0000
  C   C46       1.0  0.57767  0.92028  0.25716  1.0000
  C   C47       1.0  0.57127  0.95043  0.25547  1.0000
  C   C48       1.0  0.40015  0.96450  0.32914  1.0000
  C   C49       1.0  0.32586  0.90354  0.33570  1.0000
  C   C50       1.0  0.35001  0.90703  0.26505  1.0000
  C   C51       1.0  0.38643  0.93728  0.26115  1.0000
  C   C52       1.0  0.49292  0.17402  0.25552  1.0000
  C   C53       1.0  0.48625  0.20401  0.25715  1.0000
  C   C54       1.0  0.67779  0.18728  0.26095  1.0000
  C   C55       1.0  0.73831  0.22129  0.33551  1.0000
  C   C56       1.0  0.71415  0.21762  0.26480  1.0000
  H   H25       1.0  0.72235  0.23780  0.21699  1.0000
  H   H26       1.0  0.66072  0.18613  0.21033  1.0000
  H   H27       1.0  0.66948  0.09823  0.28784  1.0000
  H   H28       1.0  0.56153  0.06271  0.35387  1.0000
  H   H29       1.0  0.50281  0.06184  0.35349  1.0000
  H   H30       1.0  0.49641  0.16450  0.19531  1.0000
  H   H31       1.0  0.48537  0.21554  0.19754  1.0000
  H   H32       1.0  0.39484  0.02636  0.28807  1.0000
  H   H33       1.0  0.49377  0.92304  0.37232  1.0000
  H   H34       1.0  0.43259  0.92253  0.37261  1.0000
  H   H35       1.0  0.40348  0.93829  0.21058  1.0000
  H   H36       1.0  0.34175  0.88680  0.21732  1.0000
  H   H37       1.0  0.56776  0.95990  0.19525  1.0000
  H   H38       1.0  0.57848  0.90866  0.19757  1.0000
  C   C57       1.0  0.23444  0.49941  0.26771  1.0000
  N   N5        1.0  0.26713  0.49966  0.26884  1.0000
  H   H39       1.0  0.21889  0.49081  0.21065  1.0000
  C   C58       1.0  0.59443  0.82786  0.26743  1.0000
  N   N6        1.0  0.59417  0.86030  0.26857  1.0000
  H   H40       1.0  0.60298  0.82086  0.21032  1.0000
  C   C59       1.0  0.26597  0.85947  0.26769  1.0000
  N   N7        1.0  0.23355  0.82676  0.26889  1.0000
  H   H41       1.0  0.27289  0.87502  0.21065  1.0000
  C   C60       1.0  0.82826  0.62529  0.26763  1.0000
  N   N8        1.0  0.79542  0.62474  0.26879  1.0000
  H   H42       1.0  0.84384  0.63403  0.21062  1.0000
  C   C61       1.0  0.46854  0.29583  0.26732  1.0000
  N   N9        1.0  0.46917  0.26358  0.26850  1.0000
  H   H43       1.0  0.45986  0.30265  0.21023  1.0000
  C   C62       1.0  0.79816  0.26560  0.26762  1.0000
  N   N10       1.0  0.83044  0.29844  0.26885  1.0000
  H   H44       1.0  0.79137  0.25002  0.21060  1.0000
  C   C63       1.0  0.01176  0.65243  0.30081  1.0000
  C   C64       1.0  0.05007  0.67186  0.30281  1.0000
  C   C65       1.0  0.06222  0.64691  0.32295  1.0000
  N   N11       1.0  0.03107  0.61344  0.33259  1.0000
  C   C66       1.0  0.99975  0.61536  0.32131  1.0000
  C   C67       1.0  0.96210  0.58694  0.33126  1.0000
  N   N12       1.0  0.97173  0.53253  0.33291  1.0000
  C   C68       1.0  0.95144  0.49537  0.34429  1.0000
  C   C69       1.0  0.91521  0.48731  0.36195  1.0000
  C   C70       1.0  0.91491  0.52029  0.36183  1.0000
  C   C71       1.0  0.96354  0.46913  0.33502  1.0000
  C   C72       1.0  0.00110  0.47867  0.32228  1.0000
  N   N13       1.0  0.03222  0.51220  0.33152  1.0000
  C   C73       1.0  0.06354  0.51023  0.32054  1.0000
  C   C74       1.0  0.05156  0.47321  0.29942  1.0000
  C   C75       1.0  0.01326  0.45375  0.30170  1.0000
  N   N14       1.0  0.09157  0.59300  0.33317  1.0000
  C   C76       1.0  0.11185  0.63015  0.34472  1.0000
  C   C77       1.0  0.09979  0.65640  0.33523  1.0000
  C   C78       1.0  0.12751  0.69465  0.33640  1.0000
  C   C79       1.0  0.14193  0.71308  0.41829  1.0000
  C   C80       1.0  0.17251  0.74937  0.41964  1.0000
  C   C81       1.0  0.18923  0.76853  0.33942  1.0000
  C   C82       1.0  0.13209  0.50681  0.39838  1.0000
  C   C83       1.0  0.16183  0.49977  0.40065  1.0000
  C   C84       1.0  0.19039  0.51525  0.33595  1.0000
  C   C85       1.0  0.93584  0.43087  0.33625  1.0000
  C   C86       1.0  0.87440  0.35685  0.33933  1.0000
  C   C87       1.0  0.89097  0.37612  0.41954  1.0000
  C   C88       1.0  0.92141  0.41249  0.41815  1.0000
  C   C89       1.0  0.93379  0.59688  0.32934  1.0000
  C   C90       1.0  0.93092  0.61852  0.39828  1.0000
  C   C91       1.0  0.90107  0.62539  0.40051  1.0000
  C   C92       1.0  0.87258  0.60983  0.33568  1.0000
  H   H45       1.0  0.89996  0.64128  0.45120  1.0000
  H   H46       1.0  0.95014  0.62875  0.44860  1.0000
  H   H47       1.0  0.06607  0.69977  0.29212  1.0000
  H   H48       1.0  0.03118  0.59166  0.35412  1.0000
  H   H49       1.0  0.03211  0.53376  0.35486  1.0000
  H   H50       1.0  0.89187  0.52250  0.37313  1.0000
  H   H51       1.0  0.89242  0.46184  0.37288  1.0000
  H   H52       1.0  0.93201  0.42599  0.47736  1.0000
  H   H53       1.0  0.88066  0.36409  0.48027  1.0000
  H   H54       1.0  0.99728  0.42582  0.29132  1.0000
  H   H55       1.0  0.11278  0.49656  0.44850  1.0000
  H   H56       1.0  0.16274  0.48372  0.45114  1.0000
  H   H57       1.0  0.18286  0.76139  0.48036  1.0000
  H   H58       1.0  0.13130  0.69962  0.47752  1.0000
  C   C93       1.0  0.42212  0.47117  0.30100  1.0000
  N   N15       1.0  0.48055  0.51063  0.33089  1.0000
  C   C94       1.0  0.47857  0.47734  0.31982  1.0000
  C   C95       1.0  0.50692  0.46806  0.33067  1.0000
  N   N16       1.0  0.56134  0.53206  0.33248  1.0000
  C   C96       1.0  0.59849  0.54892  0.34403  1.0000
  C   C97       1.0  0.60652  0.52076  0.36193  1.0000
  C   C98       1.0  0.57353  0.48749  0.36183  1.0000
  C   C99       1.0  0.62474  0.58724  0.33469  1.0000
  N   N17       1.0  0.58172  0.61293  0.33160  1.0000
  C   C100      1.0  0.58368  0.64620  0.32050  1.0000
  C   C101      1.0  0.64015  0.65236  0.30167  1.0000
  C   C102      1.0  0.46373  0.57456  0.34422  1.0000
  C   C103      1.0  0.43749  0.53624  0.33473  1.0000
  C   C104      1.0  0.39923  0.52569  0.33600  1.0000
  C   C105      1.0  0.38084  0.52172  0.41794  1.0000
  C   C106      1.0  0.34455  0.51599  0.41942  1.0000
  C   C107      1.0  0.32535  0.51353  0.33927  1.0000
  C   C108      1.0  0.58705  0.71819  0.39808  1.0000
  C   C109      1.0  0.59408  0.75497  0.40034  1.0000
  C   C110      1.0  0.66299  0.59779  0.33596  1.0000
  C   C111      1.0  0.73701  0.61035  0.33917  1.0000
  C   C112      1.0  0.71773  0.60775  0.41934  1.0000
  C   C113      1.0  0.68137  0.60183  0.41789  1.0000
  C   C114      1.0  0.49696  0.42981  0.32879  1.0000
  C   C115      1.0  0.47523  0.40533  0.39766  1.0000
  C   C116      1.0  0.46833  0.36860  0.39995  1.0000
  C   C117      1.0  0.48395  0.35563  0.33530  1.0000
  H   H59       1.0  0.45236  0.35162  0.45055  1.0000
  H   H60       1.0  0.46492  0.41434  0.44780  1.0000
  H   H61       1.0  0.39415  0.45918  0.29108  1.0000
  H   H62       1.0  0.50209  0.53226  0.35433  1.0000
  H   H63       1.0  0.56007  0.59114  0.35405  1.0000
  H   H64       1.0  0.57129  0.46224  0.37328  1.0000
  H   H65       1.0  0.63197  0.52344  0.37301  1.0000
  H   H66       1.0  0.66785  0.59895  0.47708  1.0000
  H   H67       1.0  0.72975  0.60949  0.48010  1.0000
  H   H68       1.0  0.66810  0.66432  0.29138  1.0000
  H   H69       1.0  0.59732  0.70916  0.44818  1.0000
  H   H70       1.0  0.61013  0.77196  0.45083  1.0000
  H   H71       1.0  0.33255  0.51433  0.48018  1.0000
  H   H72       1.0  0.39433  0.52456  0.47713  1.0000
  C   C118      1.0  0.62279  0.04383  0.30190  1.0000
  C   C119      1.0  0.61663  0.09416  0.32051  1.0000
  N   N18       1.0  0.56188  0.12222  0.33264  1.0000
  C   C120      1.0  0.54501  0.14252  0.34411  1.0000
  C   C121      1.0  0.57320  0.17875  0.36159  1.0000
  C   C122      1.0  0.60646  0.17903  0.36147  1.0000
  C   C123      1.0  0.50670  0.13046  0.33469  1.0000
  C   C124      1.0  0.44767  0.03042  0.32070  1.0000
  C   C125      1.0  0.44152  0.08075  0.30221  1.0000
  C   C126      1.0  0.51929  0.98206  0.34375  1.0000
  C   C127      1.0  0.55763  0.99413  0.33460  1.0000
  C   C128      1.0  0.57211  0.95202  0.41775  1.0000
  C   C129      1.0  0.57783  0.92145  0.41919  1.0000
  C   C130      1.0  0.37573  0.96181  0.39814  1.0000
  C   C131      1.0  0.33894  0.93208  0.40045  1.0000
  C   C132      1.0  0.49616  0.15818  0.33589  1.0000
  C   C133      1.0  0.48358  0.21962  0.33899  1.0000
  C   C134      1.0  0.48622  0.20303  0.41919  1.0000
  C   C135      1.0  0.49217  0.17261  0.41780  1.0000
  C   C136      1.0  0.66414  0.16009  0.32899  1.0000
  C   C137      1.0  0.68859  0.16293  0.39798  1.0000
  C   C138      1.0  0.72531  0.19279  0.40032  1.0000
  H   H73       1.0  0.74227  0.19386  0.45100  1.0000
  H   H74       1.0  0.67955  0.14370  0.44827  1.0000
  H   H75       1.0  0.63474  0.02783  0.29161  1.0000
  H   H76       1.0  0.63172  0.20207  0.37271  1.0000
  H   H77       1.0  0.57053  0.20156  0.37243  1.0000
  H   H78       1.0  0.49504  0.16201  0.47701  1.0000
  H   H79       1.0  0.48450  0.21336  0.47994  1.0000
  H   H80       1.0  0.42958  0.09674  0.29180  1.0000
  H   H81       1.0  0.38481  0.98109  0.44834  1.0000
  H   H82       1.0  0.32200  0.93112  0.45111  1.0000
  H   H83       1.0  0.57950  0.91113  0.47996  1.0000
  H   H84       1.0  0.56928  0.96268  0.47694  1.0000
  C   C139      1.0  0.24680  0.52372  0.41781  1.0000
  C   C140      1.0  0.22273  0.51176  0.34242  1.0000
  C   C141      1.0  0.28996  0.51102  0.34099  1.0000
  N   N19       1.0  0.27904  0.52292  0.41319  1.0000
  C   C142      1.0  0.24096  0.54013  0.49971  1.0000
  H   H85       1.0  0.23603  0.56277  0.48224  1.0000
  H   H86       1.0  0.26513  0.55131  0.54363  1.0000
  H   H87       1.0  0.21730  0.51912  0.53708  1.0000
  C   C143      1.0  0.57012  0.81599  0.41755  1.0000
  C   C144      1.0  0.58206  0.80384  0.34213  1.0000
  C   C145      1.0  0.58284  0.87182  0.34074  1.0000
  N   N20       1.0  0.57093  0.84902  0.41293  1.0000
  C   C146      1.0  0.55370  0.79376  0.49944  1.0000
  H   H88       1.0  0.53106  0.76619  0.48197  1.0000
  H   H89       1.0  0.54254  0.80679  0.54337  1.0000
  H   H90       1.0  0.57472  0.79113  0.53680  1.0000
  C   C147      1.0  0.27800  0.84707  0.41761  1.0000
  C   C148      1.0  0.29004  0.87118  0.34232  1.0000
  C   C149      1.0  0.22211  0.80392  0.34102  1.0000
  N   N21       1.0  0.24497  0.81484  0.41310  1.0000
  C   C150      1.0  0.30028  0.85294  0.49942  1.0000
  H   H91       1.0  0.32787  0.85794  0.48183  1.0000
  H   H92       1.0  0.28733  0.82875  0.54331  1.0000
  H   H93       1.0  0.30287  0.87657  0.53688  1.0000
  C   C151      1.0  0.81593  0.60084  0.41755  1.0000
  C   C152      1.0  0.84007  0.61303  0.34225  1.0000
  C   C153      1.0  0.77254  0.61318  0.34088  1.0000
  N   N22       1.0  0.78356  0.60134  0.41297  1.0000
  C   C154      1.0  0.82188  0.58445  0.49932  1.0000
  H   H94       1.0  0.82705  0.56199  0.48165  1.0000
  H   H95       1.0  0.79765  0.57306  0.54314  1.0000
  H   H96       1.0  0.84541  0.60555  0.53686  1.0000
  C   C155      1.0  0.49295  0.30805  0.41729  1.0000
  C   C156      1.0  0.48071  0.31992  0.34198  1.0000
  C   C157      1.0  0.48073  0.25232  0.34064  1.0000
  N   N23       1.0  0.49249  0.27519  0.41276  1.0000
  C   C158      1.0  0.50920  0.33040  0.49913  1.0000
  H   H97       1.0  0.53165  0.35806  0.48160  1.0000
  H   H98       1.0  0.52058  0.31760  0.54307  1.0000
  H   H99       1.0  0.48803  0.33279  0.53650  1.0000
  C   C159      1.0  0.78586  0.27793  0.41745  1.0000
  C   C160      1.0  0.77401  0.25379  0.34215  1.0000
  C   C161      1.0  0.84169  0.32132  0.34095  1.0000
  N   N24       1.0  0.81876  0.31030  0.41296  1.0000
  C   C162      1.0  0.76348  0.27195  0.49918  1.0000
  H   H100      1.0  0.73584  0.26675  0.48148  1.0000
  H   H101      1.0  0.77626  0.29617  0.54304  1.0000
  H   H102      1.0  0.76103  0.24841  0.53670  1.0000
