data_image0
_chemical_formula_structural       C3HCN2H2C4NC8NC20H15C4H4C3NC3NC5NC5NC20H18C4H4C3NC3NC5NC5NC20H18C4H4C2NC2H2CH3NC2NC2H2CH3NC2NC2H2CH3NC2NC2H2CH3NC2NC2H2CH3NC2NC2H2CH3NC8H8C8H8C8H8C3HC3NHCH3NC3HC3NHCH3NC3HC3NHCH3NC3HC3NHCH3NC3HC3NHCH3NC3HC3NHCH3N
_chemical_formula_sum              "C216 H150 N36"
_cell_length_a       58.1975
_cell_length_b       58.1976
_cell_length_c       14.9856
_cell_angle_alpha    90.0142
_cell_angle_beta     89.9858
_cell_angle_gamma    120

_space_group_name_H-M_alt    "P 1"
_space_group_IT_number       1

loop_
  _space_group_symop_operation_xyz
  'x, y, z'

loop_
  _atom_site_type_symbol
  _atom_site_label
  _atom_site_symmetry_multiplicity
  _atom_site_fract_x
  _atom_site_fract_y
  _atom_site_fract_z
  _atom_site_occupancy
  C   C1        1.0  0.00114  0.58705  0.30952  1.0000
  C   C2        1.0  0.00885  0.61398  0.30814  1.0000
  C   C3        1.0  0.00535  0.49032  0.31041  1.0000
  H   H1        1.0  0.00420  0.45237  0.30830  1.0000
  C   C4        1.0  0.01500  0.47263  0.30944  1.0000
  N   N1        1.0  0.02406  0.58632  0.31135  1.0000
  N   N2        1.0  0.02716  0.51486  0.31169  1.0000
  H   H2        1.0  0.02476  0.57019  0.31202  1.0000
  H   H3        1.0  0.02646  0.53098  0.31183  1.0000
  C   C5        1.0  0.03622  0.62854  0.30878  1.0000
  C   C6        1.0  0.04587  0.61086  0.30999  1.0000
  C   C7        1.0  0.97443  0.56578  0.30798  1.0000
  C   C8        1.0  0.96663  0.53845  0.30866  1.0000
  N   N3        1.0  0.98244  0.52761  0.31092  1.0000
  C   C9        1.0  0.96826  0.50082  0.30949  1.0000
  C   C10       1.0  0.94160  0.49404  0.30646  1.0000
  C   C11       1.0  0.94060  0.51723  0.30625  1.0000
  C   C12       1.0  0.97803  0.48281  0.30944  1.0000
  C   C13       1.0  0.05008  0.51412  0.30987  1.0000
  C   C14       1.0  0.04237  0.48720  0.30880  1.0000
  C   C15       1.0  0.07679  0.53539  0.30806  1.0000
  C   C16       1.0  0.08459  0.56272  0.30863  1.0000
  N   N4        1.0  0.06878  0.57356  0.31085  1.0000
  C   C17       1.0  0.08296  0.60035  0.30934  1.0000
  C   C18       1.0  0.10962  0.60713  0.30629  1.0000
  C   C19       1.0  0.11062  0.58394  0.30611  1.0000
  C   C20       1.0  0.07319  0.61836  0.30910  1.0000
  C   C21       1.0  0.09228  0.64591  0.30369  1.0000
  C   C22       1.0  0.13230  0.70040  0.29032  1.0000
  C   C23       1.0  0.11822  0.68585  0.21389  1.0000
  C   C24       1.0  0.09857  0.65894  0.22031  1.0000
  C   C25       1.0  0.09728  0.52886  0.30146  1.0000
  C   C26       1.0  0.13752  0.51485  0.28648  1.0000
  C   C27       1.0  0.12738  0.52089  0.20972  1.0000
  C   C28       1.0  0.10756  0.52788  0.21706  1.0000
  C   C29       1.0  0.95895  0.45526  0.30394  1.0000
  C   C30       1.0  0.95278  0.44222  0.22056  1.0000
  C   C31       1.0  0.93320  0.41529  0.21409  1.0000
  C   C32       1.0  0.91912  0.40070  0.29045  1.0000
  C   C33       1.0  0.95393  0.57230  0.30138  1.0000
  C   C34       1.0  0.94367  0.57328  0.21698  1.0000
  C   C35       1.0  0.91359  0.58618  0.28646  1.0000
  C   C36       1.0  0.92379  0.58020  0.20968  1.0000
  H   H4        1.0  0.91685  0.58084  0.14746  1.0000
  H   H5        1.0  0.95073  0.56914  0.16023  1.0000
  H   H6        1.0  0.99682  0.62208  0.30630  1.0000
  H   H7        1.0  0.04703  0.64880  0.30756  1.0000
  H   H8        1.0  0.92352  0.51814  0.30379  1.0000
  H   H9        1.0  0.92535  0.47543  0.30403  1.0000
  H   H10       1.0  0.96226  0.45233  0.16384  1.0000
  H   H11       1.0  0.92901  0.40657  0.15234  1.0000
  H   H12       1.0  0.05440  0.47909  0.30686  1.0000
  H   H13       1.0  0.12586  0.62574  0.30363  1.0000
  H   H14       1.0  0.12770  0.58303  0.30357  1.0000
  H   H15       1.0  0.10052  0.53205  0.16033  1.0000
  H   H16       1.0  0.13432  0.52024  0.14750  1.0000
  H   H17       1.0  0.08910  0.64885  0.16354  1.0000
  H   H18       1.0  0.12251  0.69456  0.15214  1.0000
  C   C37       1.0  0.15648  0.50721  0.27705  1.0000
  C   C38       1.0  0.89929  0.37432  0.28112  1.0000
  C   C39       1.0  0.89456  0.59371  0.27713  1.0000
  C   C40       1.0  0.15226  0.72673  0.28105  1.0000
  H   H19       1.0  0.15628  0.49755  0.22197  1.0000
  H   H20       1.0  0.89918  0.36447  0.22670  1.0000
  H   H21       1.0  0.89475  0.60340  0.22217  1.0000
  H   H22       1.0  0.15246  0.73663  0.22664  1.0000
  C   C41       1.0  0.46145  0.46897  0.30870  1.0000
  C   C42       1.0  0.44688  0.48177  0.30934  1.0000
  C   C43       1.0  0.46457  0.50911  0.31014  1.0000
  N   N5        1.0  0.48911  0.51183  0.31145  1.0000
  C   C44       1.0  0.48837  0.48818  0.30974  1.0000
  C   C45       1.0  0.50964  0.48273  0.30789  1.0000
  C   C46       1.0  0.53697  0.50227  0.30840  1.0000
  N   N6        1.0  0.54782  0.52892  0.31075  1.0000
  C   C47       1.0  0.57461  0.54153  0.30918  1.0000
  C   C48       1.0  0.58138  0.52165  0.30598  1.0000
  C   C49       1.0  0.55819  0.49746  0.30575  1.0000
  C   C50       1.0  0.59261  0.56930  0.30918  1.0000
  C   C51       1.0  0.58511  0.58912  0.31031  1.0000
  N   N7        1.0  0.56057  0.58640  0.31161  1.0000
  C   C52       1.0  0.56131  0.61005  0.30985  1.0000
  C   C53       1.0  0.58824  0.62926  0.30874  1.0000
  C   C54       1.0  0.60280  0.61646  0.30946  1.0000
  C   C55       1.0  0.54005  0.61550  0.30808  1.0000
  C   C56       1.0  0.51271  0.59596  0.30842  1.0000
  N   N8        1.0  0.50187  0.56931  0.31067  1.0000
  C   C57       1.0  0.47508  0.55670  0.30900  1.0000
  C   C58       1.0  0.46830  0.57658  0.30581  1.0000
  C   C59       1.0  0.49150  0.60077  0.30574  1.0000
  C   C60       1.0  0.45707  0.52893  0.30892  1.0000
  C   C61       1.0  0.42952  0.52046  0.30351  1.0000
  C   C62       1.0  0.37502  0.50596  0.29015  1.0000
  C   C63       1.0  0.38957  0.50641  0.21373  1.0000
  C   C64       1.0  0.41648  0.51366  0.22015  1.0000
  C   C65       1.0  0.54657  0.64251  0.30142  1.0000
  C   C66       1.0  0.56062  0.69678  0.28635  1.0000
  C   C67       1.0  0.55456  0.68057  0.20962  1.0000
  C   C68       1.0  0.54756  0.65375  0.21700  1.0000
  C   C69       1.0  0.62016  0.57777  0.30371  1.0000
  C   C70       1.0  0.63322  0.58464  0.22035  1.0000
  C   C71       1.0  0.66015  0.59199  0.21390  1.0000
  C   C72       1.0  0.67472  0.59248  0.29028  1.0000
  C   C73       1.0  0.50312  0.45572  0.30125  1.0000
  C   C74       1.0  0.50211  0.44447  0.21682  1.0000
  C   C75       1.0  0.48927  0.40151  0.28627  1.0000
  C   C76       1.0  0.49520  0.41767  0.20949  1.0000
  H   H23       1.0  0.49453  0.41008  0.14726  1.0000
  H   H24       1.0  0.50621  0.45565  0.16009  1.0000
  H   H25       1.0  0.45334  0.44882  0.30671  1.0000
  H   H26       1.0  0.42662  0.47232  0.30791  1.0000
  H   H27       1.0  0.50523  0.52866  0.31137  1.0000
  H   H28       1.0  0.54445  0.56957  0.31185  1.0000
  H   H29       1.0  0.55728  0.47947  0.30325  1.0000
  H   H30       1.0  0.60000  0.52402  0.30343  1.0000
  H   H31       1.0  0.62312  0.58404  0.16364  1.0000
  H   H32       1.0  0.66888  0.59653  0.15219  1.0000
  H   H33       1.0  0.62306  0.62591  0.30808  1.0000
  H   H34       1.0  0.59635  0.64941  0.30682  1.0000
  H   H35       1.0  0.44969  0.57422  0.30326  1.0000
  H   H36       1.0  0.49240  0.61876  0.30335  1.0000
  H   H37       1.0  0.54338  0.64254  0.16028  1.0000
  H   H38       1.0  0.55521  0.68815  0.14738  1.0000
  H   H39       1.0  0.42657  0.51429  0.16338  1.0000
  H   H40       1.0  0.38086  0.50196  0.15199  1.0000
  C   C77       1.0  0.56828  0.72337  0.27691  1.0000
  C   C78       1.0  0.70110  0.59902  0.28098  1.0000
  C   C79       1.0  0.48177  0.37496  0.27690  1.0000
  C   C80       1.0  0.34869  0.49958  0.28088  1.0000
  H   H41       1.0  0.57791  0.73281  0.22176  1.0000
  H   H42       1.0  0.71096  0.60878  0.22659  1.0000
  H   H43       1.0  0.47205  0.36543  0.22200  1.0000
  H   H44       1.0  0.33880  0.48988  0.22646  1.0000
  C   C81       1.0  0.60647  0.06657  0.30806  1.0000
  C   C82       1.0  0.59367  0.03921  0.30876  1.0000
  C   C83       1.0  0.56633  0.02955  0.30978  1.0000
  N   N9        1.0  0.56360  0.05137  0.31116  1.0000
  C   C84       1.0  0.58725  0.07429  0.30940  1.0000
  C   C85       1.0  0.59270  0.10100  0.30783  1.0000
  C   C86       1.0  0.57315  0.10879  0.30846  1.0000
  N   N10       1.0  0.54651  0.09298  0.31070  1.0000
  C   C87       1.0  0.53389  0.10716  0.30930  1.0000
  C   C88       1.0  0.55377  0.13382  0.30625  1.0000
  C   C89       1.0  0.57797  0.13482  0.30601  1.0000
  C   C90       1.0  0.50612  0.09739  0.30918  1.0000
  C   C91       1.0  0.48631  0.07007  0.31004  1.0000
  N   N11       1.0  0.48903  0.04826  0.31137  1.0000
  C   C92       1.0  0.46538  0.02534  0.30948  1.0000
  C   C93       1.0  0.44617  0.03305  0.30814  1.0000
  C   C94       1.0  0.45897  0.06042  0.30887  1.0000
  C   C95       1.0  0.45993  0.99863  0.30782  1.0000
  C   C96       1.0  0.47947  0.99083  0.30827  1.0000
  N   N12       1.0  0.50612  0.00664  0.31041  1.0000
  C   C97       1.0  0.51874  0.99246  0.30888  1.0000
  C   C98       1.0  0.49886  0.96581  0.30588  1.0000
  C   C99       1.0  0.47466  0.96480  0.30579  1.0000
  C   C100      1.0  0.54651  0.00223  0.30876  1.0000
  C   C101      1.0  0.55497  0.98315  0.30334  1.0000
  C   C102      1.0  0.56946  0.94314  0.28998  1.0000
  C   C103      1.0  0.56898  0.95721  0.21354  1.0000
  C   C104      1.0  0.56174  0.97687  0.21996  1.0000
  C   C105      1.0  0.43292  0.97813  0.30124  1.0000
  C   C106      1.0  0.37865  0.93790  0.28634  1.0000
  C   C107      1.0  0.39485  0.94800  0.20958  1.0000
  C   C108      1.0  0.42168  0.96782  0.21687  1.0000
  C   C109      1.0  0.49765  0.11647  0.30365  1.0000
  C   C110      1.0  0.49083  0.12267  0.22025  1.0000
  C   C111      1.0  0.48346  0.14223  0.21376  1.0000
  C   C112      1.0  0.48293  0.15631  0.29013  1.0000
  C   C113      1.0  0.61971  0.12149  0.30119  1.0000
  C   C114      1.0  0.63096  0.13175  0.21678  1.0000
  C   C115      1.0  0.67391  0.16187  0.28625  1.0000
  C   C116      1.0  0.65775  0.15164  0.20947  1.0000
  H   H45       1.0  0.66534  0.15858  0.14724  1.0000
  H   H46       1.0  0.61977  0.12468  0.16004  1.0000
  H   H47       1.0  0.62661  0.07861  0.30619  1.0000
  H   H48       1.0  0.60312  0.02840  0.30733  1.0000
  H   H49       1.0  0.54677  0.05066  0.31159  1.0000
  H   H50       1.0  0.50586  0.04896  0.31205  1.0000
  H   H51       1.0  0.59596  0.15190  0.30361  1.0000
  H   H52       1.0  0.55141  0.15007  0.30383  1.0000
  H   H53       1.0  0.49147  0.11318  0.16353  1.0000
  H   H54       1.0  0.47897  0.14644  0.15201  1.0000
  H   H55       1.0  0.44951  0.07122  0.30754  1.0000
  H   H56       1.0  0.42603  0.02101  0.30613  1.0000
  H   H57       1.0  0.50122  0.94956  0.30351  1.0000
  H   H58       1.0  0.45667  0.94772  0.30354  1.0000
  H   H59       1.0  0.43288  0.97484  0.16012  1.0000
  H   H60       1.0  0.38726  0.94105  0.14736  1.0000
  H   H61       1.0  0.56111  0.98633  0.16320  1.0000
  H   H62       1.0  0.57343  0.95293  0.15180  1.0000
  C   C117      1.0  0.35206  0.91897  0.27697  1.0000
  C   C118      1.0  0.47639  0.17614  0.28080  1.0000
  C   C119      1.0  0.70046  0.18092  0.27689  1.0000
  C   C120      1.0  0.57583  0.92318  0.28070  1.0000
  H   H63       1.0  0.34261  0.91915  0.22185  1.0000
  H   H64       1.0  0.46667  0.17626  0.22633  1.0000
  H   H65       1.0  0.71000  0.18072  0.22199  1.0000
  H   H66       1.0  0.58557  0.92300  0.22635  1.0000
  C   C121      1.0  0.31291  0.50367  0.34157  1.0000
  C   C122      1.0  0.29748  0.50088  0.26540  1.0000
  N   N13       1.0  0.27371  0.49957  0.27449  1.0000
  C   C123      1.0  0.21538  0.48097  0.30643  1.0000
  C   C124      1.0  0.19360  0.48539  0.30092  1.0000
  H   H67       1.0  0.17645  0.47147  0.27081  1.0000
  H   H68       1.0  0.30420  0.50068  0.20264  1.0000
  C   C125      1.0  0.21202  0.45584  0.26860  1.0000
  H   H69       1.0  0.22881  0.45298  0.28210  1.0000
  H   H70       1.0  0.20945  0.45572  0.19642  1.0000
  H   H71       1.0  0.19445  0.43897  0.29737  1.0000
  N   N14       1.0  0.33710  0.50665  0.33877  1.0000
  C   C126      1.0  0.57177  0.88333  0.34142  1.0000
  C   C127      1.0  0.57460  0.87069  0.26527  1.0000
  N   N15       1.0  0.57591  0.84824  0.27438  1.0000
  C   C128      1.0  0.59450  0.80851  0.30621  1.0000
  C   C129      1.0  0.59007  0.78231  0.30068  1.0000
  H   H72       1.0  0.60399  0.77908  0.27053  1.0000
  H   H73       1.0  0.57477  0.87759  0.20249  1.0000
  C   C130      1.0  0.61963  0.83028  0.26840  1.0000
  H   H74       1.0  0.62250  0.84993  0.28198  1.0000
  H   H75       1.0  0.61975  0.82783  0.19622  1.0000
  H   H76       1.0  0.63650  0.82957  0.29714  1.0000
  N   N16       1.0  0.56876  0.90452  0.33859  1.0000
  C   C131      1.0  0.19213  0.76250  0.34174  1.0000
  C   C132      1.0  0.20475  0.77797  0.26558  1.0000
  N   N17       1.0  0.22720  0.80174  0.27469  1.0000
  C   C133      1.0  0.26692  0.86007  0.30647  1.0000
  C   C134      1.0  0.29312  0.88183  0.30087  1.0000
  H   H77       1.0  0.29635  0.89898  0.27071  1.0000
  H   H78       1.0  0.19785  0.77124  0.20282  1.0000
  C   C135      1.0  0.24515  0.86341  0.26868  1.0000
  H   H79       1.0  0.22549  0.84664  0.28231  1.0000
  H   H80       1.0  0.24758  0.86596  0.19648  1.0000
  H   H81       1.0  0.24586  0.88101  0.29738  1.0000
  N   N18       1.0  0.17092  0.73832  0.33892  1.0000
  C   C136      1.0  0.73708  0.59530  0.34163  1.0000
  C   C137      1.0  0.75259  0.59827  0.26544  1.0000
  N   N19       1.0  0.77648  0.59987  0.27449  1.0000
  C   C138      1.0  0.83494  0.61903  0.30620  1.0000
  C   C139      1.0  0.85688  0.61487  0.30066  1.0000
  H   H82       1.0  0.87397  0.62891  0.27053  1.0000
  H   H83       1.0  0.74580  0.59835  0.20268  1.0000
  C   C140      1.0  0.83803  0.64405  0.26840  1.0000
  H   H84       1.0  0.82112  0.64672  0.28192  1.0000
  H   H85       1.0  0.84062  0.64420  0.19622  1.0000
  H   H86       1.0  0.85551  0.66103  0.29717  1.0000
  N   N20       1.0  0.71281  0.59210  0.33887  1.0000
  C   C141      1.0  0.48009  0.21585  0.34144  1.0000
  C   C142      1.0  0.47720  0.22841  0.26522  1.0000
  N   N21       1.0  0.47563  0.25073  0.27424  1.0000
  C   C143      1.0  0.45645  0.29001  0.30605  1.0000
  C   C144      1.0  0.46060  0.31611  0.30050  1.0000
  H   H87       1.0  0.44656  0.31916  0.27037  1.0000
  H   H88       1.0  0.47709  0.22152  0.20247  1.0000
  C   C145      1.0  0.43144  0.26808  0.26822  1.0000
  H   H89       1.0  0.42878  0.24850  0.28174  1.0000
  H   H90       1.0  0.43129  0.27051  0.19604  1.0000
  H   H91       1.0  0.41445  0.26857  0.29697  1.0000
  N   N22       1.0  0.48329  0.19477  0.33871  1.0000
  C   C146      1.0  0.85959  0.33832  0.34176  1.0000
  C   C147      1.0  0.84705  0.32283  0.26556  1.0000
  N   N23       1.0  0.82473  0.29895  0.27459  1.0000
  C   C148      1.0  0.78542  0.24050  0.30623  1.0000
  C   C149      1.0  0.75932  0.21857  0.30062  1.0000
  H   H92       1.0  0.75626  0.20148  0.27041  1.0000
  H   H93       1.0  0.85392  0.32961  0.20280  1.0000
  C   C150      1.0  0.80736  0.23741  0.26844  1.0000
  H   H94       1.0  0.82693  0.25430  0.28206  1.0000
  H   H95       1.0  0.80494  0.23485  0.19624  1.0000
  H   H96       1.0  0.80683  0.21991  0.29713  1.0000
  N   N24       1.0  0.88065  0.36259  0.33903  1.0000
  C   C151      1.0  0.10589  0.66032  0.38056  1.0000
  C   C152      1.0  0.12565  0.68721  0.37389  1.0000
  C   C153      1.0  0.10729  0.52287  0.37842  1.0000
  C   C154      1.0  0.12717  0.51592  0.37095  1.0000
  C   C155      1.0  0.92565  0.41391  0.37401  1.0000
  C   C156      1.0  0.94531  0.44083  0.38074  1.0000
  C   C157      1.0  0.94387  0.57823  0.37836  1.0000
  C   C158      1.0  0.92394  0.58510  0.37094  1.0000
  H   H97       1.0  0.91734  0.58970  0.42781  1.0000
  H   H98       1.0  0.95117  0.57782  0.44014  1.0000
  H   H99       1.0  0.94938  0.44991  0.44182  1.0000
  H   H100      1.0  0.91604  0.40410  0.43095  1.0000
  H   H101      1.0  0.09999  0.52328  0.44020  1.0000
  H   H102      1.0  0.13373  0.51128  0.42780  1.0000
  H   H103      1.0  0.13525  0.69699  0.43087  1.0000
  H   H104      1.0  0.10176  0.65123  0.44163  1.0000
  C   C159      1.0  0.41511  0.51968  0.38037  1.0000
  C   C160      1.0  0.38822  0.51253  0.37371  1.0000
  C   C161      1.0  0.55258  0.65853  0.37834  1.0000
  C   C162      1.0  0.55954  0.68536  0.37084  1.0000
  C   C163      1.0  0.66151  0.58581  0.37382  1.0000
  C   C164      1.0  0.63458  0.57856  0.38052  1.0000
  C   C165      1.0  0.49723  0.43974  0.37822  1.0000
  C   C166      1.0  0.49037  0.41294  0.37077  1.0000
  H   H105      1.0  0.48582  0.40176  0.42764  1.0000
  H   H106      1.0  0.49768  0.44746  0.44003  1.0000
  H   H107      1.0  0.62549  0.57354  0.44158  1.0000
  H   H108      1.0  0.67130  0.58599  0.43077  1.0000
  H   H109      1.0  0.55217  0.65084  0.44014  1.0000
  H   H110      1.0  0.56419  0.69658  0.42768  1.0000
  H   H111      1.0  0.37844  0.51238  0.43068  1.0000
  H   H112      1.0  0.42421  0.52467  0.44143  1.0000
  C   C167      1.0  0.55577  0.96954  0.38021  1.0000
  C   C168      1.0  0.56291  0.94979  0.37355  1.0000
  C   C169      1.0  0.41691  0.96817  0.37820  1.0000
  C   C170      1.0  0.39008  0.94829  0.37078  1.0000
  C   C171      1.0  0.48956  0.14976  0.37371  1.0000
  C   C172      1.0  0.49682  0.13009  0.38045  1.0000
  C   C173      1.0  0.63569  0.13157  0.37817  1.0000
  C   C174      1.0  0.66249  0.15151  0.37072  1.0000
  H   H113      1.0  0.67367  0.15814  0.42760  1.0000
  H   H114      1.0  0.62798  0.12429  0.43996  1.0000
  H   H115      1.0  0.50181  0.12601  0.44155  1.0000
  H   H116      1.0  0.48935  0.15936  0.43065  1.0000
  H   H117      1.0  0.42461  0.97549  0.43996  1.0000
  H   H118      1.0  0.37887  0.94177  0.42764  1.0000
  H   H119      1.0  0.56309  0.94019  0.43053  1.0000
  H   H120      1.0  0.55080  0.97367  0.44129  1.0000
  C   C175      1.0  0.26289  0.50020  0.35426  1.0000
  C   C176      1.0  0.27748  0.50310  0.43378  1.0000
  C   C177      1.0  0.30264  0.50505  0.42536  1.0000
  H   H121      1.0  0.31363  0.50730  0.48151  1.0000
  C   C178      1.0  0.23873  0.50048  0.35031  1.0000
  C   C179      1.0  0.19480  0.50836  0.33753  1.0000
  C   C180      1.0  0.21827  0.52656  0.38159  1.0000
  N   N25       1.0  0.23907  0.52225  0.38496  1.0000
  H   H122      1.0  0.22023  0.54349  0.40946  1.0000
  C   C181      1.0  0.26775  0.50351  0.52520  1.0000
  H   H123      1.0  0.24740  0.49964  0.52619  1.0000
  H   H124      1.0  0.28048  0.52286  0.55568  1.0000
  H   H125      1.0  0.26834  0.48829  0.56608  1.0000
  N   N26       1.0  0.17492  0.51344  0.33520  1.0000
  C   C182      1.0  0.57528  0.83680  0.35415  1.0000
  C   C183      1.0  0.57234  0.84849  0.43365  1.0000
  C   C184      1.0  0.57038  0.87169  0.42521  1.0000
  H   H126      1.0  0.56810  0.88043  0.48135  1.0000
  C   C185      1.0  0.57501  0.81237  0.35024  1.0000
  C   C186      1.0  0.56710  0.76054  0.33728  1.0000
  C   C187      1.0  0.54891  0.76583  0.38140  1.0000
  N   N27       1.0  0.55323  0.79094  0.38484  1.0000
  H   H127      1.0  0.53199  0.75086  0.40927  1.0000
  C   C188      1.0  0.57192  0.83836  0.52508  1.0000
  H   H128      1.0  0.57581  0.82190  0.52610  1.0000
  H   H129      1.0  0.55256  0.83173  0.55551  1.0000
  H   H130      1.0  0.58713  0.85418  0.56600  1.0000
  N   N28       1.0  0.56203  0.73559  0.33500  1.0000
  C   C189      1.0  0.23864  0.81256  0.35445  1.0000
  C   C190      1.0  0.22695  0.79795  0.43395  1.0000
  C   C191      1.0  0.20377  0.77277  0.42552  1.0000
  H   H131      1.0  0.19503  0.76177  0.48167  1.0000
  C   C192      1.0  0.26307  0.83673  0.35052  1.0000
  C   C193      1.0  0.31489  0.88065  0.33748  1.0000
  C   C194      1.0  0.30961  0.85719  0.38170  1.0000
  N   N29       1.0  0.28450  0.83639  0.38512  1.0000
  H   H132      1.0  0.32459  0.85523  0.40946  1.0000
  C   C195      1.0  0.23709  0.80767  0.52538  1.0000
  H   H133      1.0  0.25355  0.82803  0.52639  1.0000
  H   H134      1.0  0.24373  0.79496  0.55578  1.0000
  H   H135      1.0  0.22127  0.80705  0.56632  1.0000
  N   N30       1.0  0.33985  0.90052  0.33512  1.0000
  C   C196      1.0  0.78739  0.59941  0.35424  1.0000
  C   C197      1.0  0.77274  0.59633  0.43376  1.0000
  C   C198      1.0  0.74745  0.59409  0.42540  1.0000
  H   H136      1.0  0.73643  0.59173  0.48158  1.0000
  C   C199      1.0  0.81168  0.59938  0.35018  1.0000
  C   C200      1.0  0.85595  0.59204  0.33732  1.0000
  C   C201      1.0  0.83254  0.57369  0.38143  1.0000
  N   N31       1.0  0.81158  0.57774  0.38485  1.0000
  H   H137      1.0  0.83077  0.55683  0.40928  1.0000
  C   C202      1.0  0.78254  0.59606  0.52516  1.0000
  H   H138      1.0  0.80297  0.60016  0.52611  1.0000
  H   H139      1.0  0.76998  0.57668  0.55565  1.0000
  H   H140      1.0  0.78176  0.61118  0.56607  1.0000
  N   N32       1.0  0.87598  0.58719  0.33496  1.0000
  C   C203      1.0  0.47610  0.26211  0.35399  1.0000
  C   C204      1.0  0.47911  0.25051  0.43355  1.0000
  C   C205      1.0  0.48131  0.22745  0.42520  1.0000
  H   H141      1.0  0.48363  0.21877  0.48140  1.0000
  C   C206      1.0  0.47611  0.28641  0.34998  1.0000
  C   C207      1.0  0.48344  0.33802  0.33711  1.0000
  C   C208      1.0  0.50180  0.33298  0.38119  1.0000
  N   N33       1.0  0.49775  0.30797  0.38462  1.0000
  H   H142      1.0  0.51865  0.34806  0.40905  1.0000
  C   C209      1.0  0.47936  0.26059  0.52495  1.0000
  H   H143      1.0  0.47531  0.27695  0.52587  1.0000
  H   H144      1.0  0.49873  0.26737  0.55554  1.0000
  H   H145      1.0  0.46420  0.24470  0.56578  1.0000
  N   N34       1.0  0.48829  0.36290  0.33473  1.0000
  C   C210      1.0  0.81334  0.28805  0.35433  1.0000
  C   C211      1.0  0.82493  0.30268  0.43388  1.0000
  C   C212      1.0  0.84798  0.32796  0.42552  1.0000
  H   H146      1.0  0.85665  0.33898  0.48171  1.0000
  C   C213      1.0  0.78904  0.26375  0.35033  1.0000
  C   C214      1.0  0.73741  0.21951  0.33718  1.0000
  C   C215      1.0  0.74246  0.24291  0.38137  1.0000
  N   N35       1.0  0.76748  0.26385  0.38490  1.0000
  H   H147      1.0  0.72738  0.24469  0.40920  1.0000
  C   C216      1.0  0.81483  0.29288  0.52527  1.0000
  H   H148      1.0  0.79848  0.27246  0.52621  1.0000
  H   H149      1.0  0.80804  0.30546  0.55579  1.0000
  H   H150      1.0  0.83072  0.29363  0.56615  1.0000
  N   N36       1.0  0.71253  0.19949  0.33477  1.0000
