data_image0
_chemical_formula_structural       C2HN2CNC4HC4H2C4H2N13CNCNCNCNCNCNCNCNCNCNCNCNCNCNCN6C4H2C4H2C4H2C4H2C4H2C4H2
_chemical_formula_sum              "C54 H18 N36"
_cell_length_a       30.0884
_cell_length_b       30.0884
_cell_length_c       14.8162
_cell_angle_alpha    90
_cell_angle_beta     90
_cell_angle_gamma    120

_space_group_name_H-M_alt    "P 1"
_space_group_IT_number       1

loop_
  _space_group_symop_operation_xyz
  'x, y, z'

loop_
  _atom_site_type_symbol
  _atom_site_label
  _atom_site_symmetry_multiplicity
  _atom_site_fract_x
  _atom_site_fract_y
  _atom_site_fract_z
  _atom_site_occupancy
  C   C1        1.0  0.03427  0.47615  0.40232  1.0000
  C   C2        1.0  0.06175  0.53014  0.39169  1.0000
  H   H1        1.0  0.05310  0.45580  0.40643  1.0000
  N   N1        1.0  0.03247  0.55284  0.38272  1.0000
  N   N2        1.0  0.14083  0.61115  0.36227  1.0000
  C   C3        1.0  0.11603  0.55880  0.37628  1.0000
  N   N3        1.0  0.14319  0.53356  0.36341  1.0000
  C   C4        1.0  0.18977  0.63756  0.32923  1.0000
  C   C5        1.0  0.19197  0.55771  0.33023  1.0000
  C   C6        1.0  0.95270  0.47556  0.39090  1.0000
  C   C7        1.0  0.98017  0.44908  0.40196  1.0000
  H   H2        1.0  0.96136  0.40988  0.40578  1.0000
  C   C8        1.0  0.53757  0.48213  0.39504  1.0000
  C   C9        1.0  0.56396  0.53602  0.40691  1.0000
  C   C10       1.0  0.53694  0.56310  0.40614  1.0000
  C   C11       1.0  0.48309  0.53670  0.39359  1.0000
  H   H3        1.0  0.55727  0.60227  0.41085  1.0000
  H   H4        1.0  0.60311  0.55634  0.41200  1.0000
  C   C12       1.0  0.53320  0.06079  0.39289  1.0000
  C   C13       1.0  0.55952  0.03332  0.40619  1.0000
  C   C14       1.0  0.53248  0.97923  0.40634  1.0000
  C   C15       1.0  0.47869  0.95174  0.39314  1.0000
  H   H5        1.0  0.55281  0.96045  0.41217  1.0000
  H   H6        1.0  0.59864  0.05212  0.41185  1.0000
  N   N4        1.0  0.27026  0.57337  0.26960  1.0000
  N   N5        1.0  0.31297  0.57301  0.26895  1.0000
  N   N6        1.0  0.43825  0.70127  0.27214  1.0000
  N   N7        1.0  0.43737  0.74369  0.27253  1.0000
  N   N8        1.0  0.30957  0.74505  0.26740  1.0000
  N   N9        1.0  0.26708  0.70173  0.26743  1.0000
  N   N10       1.0  0.74586  0.43967  0.27005  1.0000
  N   N11       1.0  0.70283  0.43937  0.27119  1.0000
  N   N12       1.0  0.57146  0.31099  0.26895  1.0000
  N   N13       1.0  0.57064  0.26768  0.26839  1.0000
  N   N14       1.0  0.69962  0.26885  0.27105  1.0000
  N   N15       1.0  0.74291  0.31130  0.27079  1.0000
  N   N16       1.0  0.21140  0.60824  0.31415  1.0000
  C   C16       1.0  0.37600  0.55750  0.32921  1.0000
  N   N17       1.0  0.40226  0.53486  0.36251  1.0000
  C   C17       1.0  0.45461  0.56237  0.37696  1.0000
  N   N18       1.0  0.48000  0.61485  0.36429  1.0000
  C   C18       1.0  0.45601  0.63955  0.33066  1.0000
  N   N19       1.0  0.40563  0.60833  0.31446  1.0000
  C   C19       1.0  0.45269  0.82211  0.33190  1.0000
  N   N20       1.0  0.47626  0.87090  0.36485  1.0000
  C   C20       1.0  0.45039  0.89748  0.37737  1.0000
  N   N21       1.0  0.39803  0.87209  0.36291  1.0000
  C   C21       1.0  0.37222  0.82313  0.32963  1.0000
  N   N22       1.0  0.40221  0.80225  0.31523  1.0000
  C   C22       1.0  0.82237  0.37285  0.32958  1.0000
  N   N23       1.0  0.87130  0.39747  0.36214  1.0000
  C   C23       1.0  0.89845  0.44992  0.37515  1.0000
  N   N24       1.0  0.87354  0.47748  0.36190  1.0000
  C   C24       1.0  0.82442  0.45488  0.32960  1.0000
  N   N25       1.0  0.80315  0.40410  0.31431  1.0000
  C   C25       1.0  0.64031  0.45488  0.33275  1.0000
  N   N26       1.0  0.61567  0.47892  0.36637  1.0000
  C   C26       1.0  0.56327  0.45357  0.37937  1.0000
  N   N27       1.0  0.53575  0.40126  0.36507  1.0000
  C   C27       1.0  0.55830  0.37495  0.33164  1.0000
  N   N28       1.0  0.60922  0.40436  0.31645  1.0000
  C   C28       1.0  0.55526  0.18944  0.32977  1.0000
  N   N29       1.0  0.53215  0.14044  0.36289  1.0000
  C   C29       1.0  0.55914  0.11501  0.37665  1.0000
  N   N30       1.0  0.61153  0.14150  0.36336  1.0000
  C   C30       1.0  0.63665  0.19020  0.32998  1.0000
  N   N31       1.0  0.60604  0.21018  0.31434  1.0000
  N   N32       1.0  0.98196  0.52756  0.38238  1.0000
  N   N33       1.0  0.46045  0.48477  0.38394  1.0000
  N   N34       1.0  0.48569  0.45950  0.38458  1.0000
  N   N35       1.0  0.45607  0.98098  0.38223  1.0000
  N   N36       1.0  0.48134  0.03151  0.38209  1.0000
  C   C31       1.0  0.32290  0.54090  0.31847  1.0000
  C   C32       1.0  0.27972  0.50146  0.36431  1.0000
  C   C33       1.0  0.23235  0.50176  0.36500  1.0000
  C   C34       1.0  0.22869  0.54148  0.31993  1.0000
  H   H7        1.0  0.20357  0.47744  0.40736  1.0000
  H   H8        1.0  0.28429  0.47720  0.40663  1.0000
  C   C35       1.0  0.46943  0.78580  0.32161  1.0000
  C   C36       1.0  0.50986  0.78305  0.36580  1.0000
  C   C37       1.0  0.51068  0.73596  0.36559  1.0000
  C   C38       1.0  0.47123  0.69230  0.32083  1.0000
  H   H9        1.0  0.53581  0.73211  0.40680  1.0000
  H   H10       1.0  0.53431  0.81223  0.40736  1.0000
  C   C39       1.0  0.22542  0.69089  0.31866  1.0000
  C   C40       1.0  0.22875  0.73359  0.36571  1.0000
  C   C41       1.0  0.27590  0.78154  0.36584  1.0000
  C   C42       1.0  0.31919  0.78641  0.31861  1.0000
  H   H11       1.0  0.28025  0.80977  0.40949  1.0000
  H   H12       1.0  0.20020  0.72827  0.40943  1.0000
  C   C43       1.0  0.69326  0.47120  0.32197  1.0000
  C   C44       1.0  0.73673  0.51077  0.36709  1.0000
  C   C45       1.0  0.78433  0.51091  0.36602  1.0000
  C   C46       1.0  0.78798  0.47162  0.31949  1.0000
  H   H13       1.0  0.81326  0.53510  0.40825  1.0000
  H   H14       1.0  0.73233  0.53490  0.41002  1.0000
  C   C47       1.0  0.53898  0.22622  0.31945  1.0000
  C   C48       1.0  0.50043  0.23082  0.36679  1.0000
  C   C49       1.0  0.50133  0.27882  0.36745  1.0000
  C   C50       1.0  0.54070  0.32166  0.32070  1.0000
  H   H15       1.0  0.47799  0.28396  0.41118  1.0000
  H   H16       1.0  0.47663  0.20249  0.41033  1.0000
  C   C51       1.0  0.78498  0.32011  0.31891  1.0000
  C   C52       1.0  0.78090  0.27633  0.36298  1.0000
  C   C53       1.0  0.73294  0.22930  0.36336  1.0000
  C   C54       1.0  0.68967  0.22660  0.31960  1.0000
  H   H17       1.0  0.72833  0.19996  0.40439  1.0000
  H   H18       1.0  0.80989  0.28012  0.40409  1.0000
