data_image0
_chemical_formula_structural       C15H12C4H2C4H2C2NC2NC5NC3NC17H14C2H2C2H2C15H12C4H2C4H2C2NC2NC5NC3NC17H14C2H2C2H2C15H12C4H2C4H2C2NC2NC5NC3NC17H14C2H2C2H2C15H12C4H2C4H2C2NC2NC5NC3NC17H14C2H2C2H2
_chemical_formula_sum              "C224 H136 N16"
_cell_length_a       42.9248
_cell_length_b       42.9248
_cell_length_c       14.9944
_cell_angle_alpha    90
_cell_angle_beta     90
_cell_angle_gamma    90

_space_group_name_H-M_alt    "P 1"
_space_group_IT_number       1

loop_
  _space_group_symop_operation_xyz
  'x, y, z'

loop_
  _atom_site_type_symbol
  _atom_site_label
  _atom_site_symmetry_multiplicity
  _atom_site_fract_x
  _atom_site_fract_y
  _atom_site_fract_z
  _atom_site_occupancy
  C   C1        1.0  0.43363  0.47095  0.33411  1.0000
  C   C2        1.0  0.02952  0.43287  0.33430  1.0000
  C   C3        1.0  0.49940  0.08168  0.33362  1.0000
  C   C4        1.0  0.46991  0.06656  0.33385  1.0000
  C   C5        1.0  0.41820  0.05862  0.33250  1.0000
  C   C6        1.0  0.44090  0.08129  0.33492  1.0000
  C   C7        1.0  0.33471  0.48771  0.26137  1.0000
  C   C8        1.0  0.36747  0.48845  0.26022  1.0000
  C   C9        1.0  0.49967  0.11507  0.33343  1.0000
  C   C10       1.0  0.48763  0.16478  0.26080  1.0000
  C   C11       1.0  0.48827  0.13202  0.25962  1.0000
  C   C12       1.0  0.13194  0.01107  0.26047  1.0000
  C   C13       1.0  0.16470  0.01193  0.26164  1.0000
  C   C14       1.0  0.01115  0.36746  0.25974  1.0000
  C   C15       1.0  0.01186  0.33470  0.26084  1.0000
  H   H1        1.0  0.02190  0.32387  0.20746  1.0000
  H   H2        1.0  0.01990  0.37896  0.20540  1.0000
  H   H3        1.0  0.43707  0.39580  0.33143  1.0000
  H   H4        1.0  0.12040  0.01977  0.20614  1.0000
  H   H5        1.0  0.17549  0.02205  0.20830  1.0000
  H   H6        1.0  0.06237  0.10362  0.33129  1.0000
  H   H7        1.0  0.39485  0.06317  0.33132  1.0000
  H   H8        1.0  0.43638  0.10465  0.33609  1.0000
  H   H9        1.0  0.47946  0.12055  0.20530  1.0000
  H   H10       1.0  0.47757  0.17564  0.20750  1.0000
  H   H11       1.0  0.37898  0.47981  0.20575  1.0000
  H   H12       1.0  0.32387  0.47770  0.20794  1.0000
  C   C16       1.0  0.99942  0.26612  0.25323  1.0000
  C   C17       1.0  0.00010  0.23335  0.25319  1.0000
  C   C18       1.0  0.99990  0.21586  0.33344  1.0000
  C   C19       1.0  0.99979  0.28359  0.33350  1.0000
  H   H13       1.0  0.00104  0.22253  0.19258  1.0000
  H   H14       1.0  0.99834  0.27696  0.19266  1.0000
  C   C20       1.0  0.23334  0.99965  0.25380  1.0000
  C   C21       1.0  0.26611  0.00027  0.25377  1.0000
  C   C22       1.0  0.28360  0.99986  0.33402  1.0000
  C   C23       1.0  0.21587  0.99985  0.33409  1.0000
  H   H15       1.0  0.27694  0.00133  0.19319  1.0000
  H   H16       1.0  0.22250  0.99872  0.19322  1.0000
  C   C24       1.0  0.44174  0.41912  0.33280  1.0000
  C   C25       1.0  0.41907  0.44182  0.33513  1.0000
  N   N1        1.0  0.46463  0.46467  0.33397  1.0000
  C   C26       1.0  0.47088  0.43366  0.33380  1.0000
  C   C27       1.0  0.50003  0.41774  0.33396  1.0000
  N   N2        1.0  0.03560  0.46380  0.33418  1.0000
  C   C28       1.0  0.06653  0.46983  0.33404  1.0000
  C   C29       1.0  0.08124  0.44080  0.33302  1.0000
  C   C30       1.0  0.05854  0.41813  0.33539  1.0000
  C   C31       1.0  0.08169  0.49931  0.33424  1.0000
  C   C32       1.0  0.06580  0.02847  0.33426  1.0000
  N   N3        1.0  0.03480  0.03475  0.33390  1.0000
  C   C33       1.0  0.02856  0.06576  0.33358  1.0000
  C   C34       1.0  0.05769  0.08029  0.33259  1.0000
  C   C35       1.0  0.08036  0.05760  0.33527  1.0000
  N   N4        1.0  0.46385  0.03563  0.33376  1.0000
  C   C36       1.0  0.43291  0.02959  0.33362  1.0000
  C   C37       1.0  0.41775  0.50012  0.33392  1.0000
  C   C38       1.0  0.38436  0.49989  0.33407  1.0000
  C   C39       1.0  0.36744  0.01129  0.40794  1.0000
  C   C40       1.0  0.33468  0.01199  0.40673  1.0000
  C   C41       1.0  0.31726  0.49985  0.33403  1.0000
  C   C42       1.0  0.01120  0.13196  0.40720  1.0000
  C   C43       1.0  0.01205  0.16472  0.40595  1.0000
  C   C44       1.0  0.49988  0.18218  0.33338  1.0000
  C   C45       1.0  0.11508  0.49954  0.33429  1.0000
  C   C46       1.0  0.18219  0.49977  0.33416  1.0000
  C   C47       1.0  0.16481  0.48749  0.40676  1.0000
  C   C48       1.0  0.13205  0.48811  0.40802  1.0000
  C   C49       1.0  0.49978  0.38436  0.33367  1.0000
  C   C50       1.0  0.48834  0.36744  0.40749  1.0000
  C   C51       1.0  0.48759  0.33468  0.40622  1.0000
  C   C52       1.0  0.49973  0.31726  0.33352  1.0000
  H   H17       1.0  0.47758  0.32382  0.45962  1.0000
  H   H18       1.0  0.47969  0.37893  0.46198  1.0000
  H   H19       1.0  0.39574  0.43718  0.33651  1.0000
  H   H20       1.0  0.48045  0.48047  0.33397  1.0000
  H   H21       1.0  0.01898  0.01895  0.33388  1.0000
  H   H22       1.0  0.06305  0.39477  0.33653  1.0000
  H   H23       1.0  0.10459  0.43625  0.33173  1.0000
  H   H24       1.0  0.12061  0.47932  0.46239  1.0000
  H   H25       1.0  0.17570  0.47744  0.46004  1.0000
  H   H26       1.0  0.10369  0.06225  0.33686  1.0000
  H   H27       1.0  0.01987  0.12044  0.46161  1.0000
  H   H28       1.0  0.02214  0.17553  0.45930  1.0000
  H   H29       1.0  0.32383  0.02204  0.46008  1.0000
  H   H30       1.0  0.37892  0.02004  0.46231  1.0000
  C   C53       1.0  0.99967  0.23333  0.41372  1.0000
  C   C54       1.0  0.00023  0.26611  0.41375  1.0000
  H   H31       1.0  0.99875  0.22249  0.47431  1.0000
  H   H32       1.0  0.00127  0.27694  0.47433  1.0000
  C   C55       1.0  0.26613  0.99946  0.41429  1.0000
  C   C56       1.0  0.23336  0.00009  0.41433  1.0000
  H   H33       1.0  0.27697  0.99839  0.47486  1.0000
  H   H34       1.0  0.22254  0.00101  0.47495  1.0000
  C   C57       1.0  0.43363  0.97094  0.33411  1.0000
  C   C58       1.0  0.02952  0.93287  0.33430  1.0000
  C   C59       1.0  0.49940  0.58169  0.33362  1.0000
  C   C60       1.0  0.46991  0.56656  0.33385  1.0000
  C   C61       1.0  0.41820  0.55862  0.33250  1.0000
  C   C62       1.0  0.44090  0.58129  0.33492  1.0000
  C   C63       1.0  0.33471  0.98771  0.26137  1.0000
  C   C64       1.0  0.36747  0.98845  0.26022  1.0000
  C   C65       1.0  0.49967  0.61508  0.33343  1.0000
  C   C66       1.0  0.48763  0.66478  0.26080  1.0000
  C   C67       1.0  0.48827  0.63202  0.25962  1.0000
  C   C68       1.0  0.13194  0.51107  0.26047  1.0000
  C   C69       1.0  0.16470  0.51194  0.26164  1.0000
  C   C70       1.0  0.01115  0.86746  0.25974  1.0000
  C   C71       1.0  0.01186  0.83470  0.26084  1.0000
  H   H35       1.0  0.02190  0.82387  0.20746  1.0000
  H   H36       1.0  0.01990  0.87896  0.20540  1.0000
  H   H37       1.0  0.43707  0.89580  0.33143  1.0000
  H   H38       1.0  0.12040  0.51977  0.20614  1.0000
  H   H39       1.0  0.17549  0.52205  0.20830  1.0000
  H   H40       1.0  0.06237  0.60361  0.33129  1.0000
  H   H41       1.0  0.39485  0.56317  0.33132  1.0000
  H   H42       1.0  0.43638  0.60465  0.33609  1.0000
  H   H43       1.0  0.47946  0.62055  0.20530  1.0000
  H   H44       1.0  0.47757  0.67564  0.20750  1.0000
  H   H45       1.0  0.37898  0.97981  0.20575  1.0000
  H   H46       1.0  0.32387  0.97770  0.20794  1.0000
  C   C72       1.0  0.99942  0.76612  0.25323  1.0000
  C   C73       1.0  0.00010  0.73335  0.25319  1.0000
  C   C74       1.0  0.99990  0.71586  0.33344  1.0000
  C   C75       1.0  0.99979  0.78359  0.33350  1.0000
  H   H47       1.0  0.00104  0.72253  0.19258  1.0000
  H   H48       1.0  0.99834  0.77696  0.19266  1.0000
  C   C76       1.0  0.23334  0.49965  0.25380  1.0000
  C   C77       1.0  0.26611  0.50027  0.25377  1.0000
  C   C78       1.0  0.28360  0.49986  0.33402  1.0000
  C   C79       1.0  0.21587  0.49985  0.33409  1.0000
  H   H49       1.0  0.27694  0.50133  0.19319  1.0000
  H   H50       1.0  0.22250  0.49872  0.19322  1.0000
  C   C80       1.0  0.44174  0.91912  0.33280  1.0000
  C   C81       1.0  0.41907  0.94182  0.33513  1.0000
  N   N5        1.0  0.46463  0.96467  0.33397  1.0000
  C   C82       1.0  0.47088  0.93366  0.33380  1.0000
  C   C83       1.0  0.50003  0.91775  0.33396  1.0000
  N   N6        1.0  0.03560  0.96380  0.33418  1.0000
  C   C84       1.0  0.06653  0.96983  0.33404  1.0000
  C   C85       1.0  0.08124  0.94080  0.33302  1.0000
  C   C86       1.0  0.05854  0.91813  0.33539  1.0000
  C   C87       1.0  0.08169  0.99931  0.33424  1.0000
  C   C88       1.0  0.06580  0.52847  0.33426  1.0000
  N   N7        1.0  0.03480  0.53475  0.33390  1.0000
  C   C89       1.0  0.02856  0.56576  0.33358  1.0000
  C   C90       1.0  0.05769  0.58029  0.33259  1.0000
  C   C91       1.0  0.08036  0.55759  0.33527  1.0000
  N   N8        1.0  0.46385  0.53563  0.33376  1.0000
  C   C92       1.0  0.43291  0.52959  0.33362  1.0000
  C   C93       1.0  0.41775  0.00012  0.33392  1.0000
  C   C94       1.0  0.38436  0.99990  0.33407  1.0000
  C   C95       1.0  0.36744  0.51129  0.40794  1.0000
  C   C96       1.0  0.33468  0.51199  0.40673  1.0000
  C   C97       1.0  0.31726  0.99985  0.33403  1.0000
  C   C98       1.0  0.01120  0.63196  0.40720  1.0000
  C   C99       1.0  0.01205  0.66472  0.40595  1.0000
  C   C100      1.0  0.49988  0.68218  0.33338  1.0000
  C   C101      1.0  0.11508  0.99954  0.33429  1.0000
  C   C102      1.0  0.18219  0.99977  0.33416  1.0000
  C   C103      1.0  0.16481  0.98750  0.40676  1.0000
  C   C104      1.0  0.13205  0.98811  0.40802  1.0000
  C   C105      1.0  0.49978  0.88436  0.33367  1.0000
  C   C106      1.0  0.48834  0.86744  0.40749  1.0000
  C   C107      1.0  0.48759  0.83468  0.40622  1.0000
  C   C108      1.0  0.49973  0.81726  0.33352  1.0000
  H   H51       1.0  0.47758  0.82382  0.45962  1.0000
  H   H52       1.0  0.47969  0.87893  0.46198  1.0000
  H   H53       1.0  0.39574  0.93718  0.33651  1.0000
  H   H54       1.0  0.48045  0.98047  0.33397  1.0000
  H   H55       1.0  0.01898  0.51895  0.33388  1.0000
  H   H56       1.0  0.06305  0.89477  0.33653  1.0000
  H   H57       1.0  0.10459  0.93625  0.33173  1.0000
  H   H58       1.0  0.12061  0.97932  0.46239  1.0000
  H   H59       1.0  0.17570  0.97744  0.46004  1.0000
  H   H60       1.0  0.10369  0.56225  0.33686  1.0000
  H   H61       1.0  0.01987  0.62044  0.46161  1.0000
  H   H62       1.0  0.02214  0.67553  0.45930  1.0000
  H   H63       1.0  0.32383  0.52204  0.46008  1.0000
  H   H64       1.0  0.37892  0.52004  0.46231  1.0000
  C   C109      1.0  0.99967  0.73333  0.41372  1.0000
  C   C110      1.0  0.00023  0.76611  0.41375  1.0000
  H   H65       1.0  0.99875  0.72249  0.47431  1.0000
  H   H66       1.0  0.00127  0.77694  0.47433  1.0000
  C   C111      1.0  0.26613  0.49946  0.41429  1.0000
  C   C112      1.0  0.23336  0.50009  0.41433  1.0000
  H   H67       1.0  0.27697  0.49839  0.47486  1.0000
  H   H68       1.0  0.22254  0.50100  0.47495  1.0000
  C   C113      1.0  0.93363  0.47095  0.33411  1.0000
  C   C114      1.0  0.52952  0.43287  0.33430  1.0000
  C   C115      1.0  0.99940  0.08168  0.33362  1.0000
  C   C116      1.0  0.96991  0.06656  0.33385  1.0000
  C   C117      1.0  0.91820  0.05862  0.33250  1.0000
  C   C118      1.0  0.94090  0.08129  0.33492  1.0000
  C   C119      1.0  0.83471  0.48771  0.26137  1.0000
  C   C120      1.0  0.86747  0.48845  0.26022  1.0000
  C   C121      1.0  0.99967  0.11507  0.33343  1.0000
  C   C122      1.0  0.98763  0.16478  0.26080  1.0000
  C   C123      1.0  0.98827  0.13202  0.25962  1.0000
  C   C124      1.0  0.63194  0.01107  0.26047  1.0000
  C   C125      1.0  0.66470  0.01193  0.26164  1.0000
  C   C126      1.0  0.51115  0.36746  0.25974  1.0000
  C   C127      1.0  0.51186  0.33470  0.26084  1.0000
  H   H69       1.0  0.52190  0.32387  0.20746  1.0000
  H   H70       1.0  0.51990  0.37896  0.20540  1.0000
  H   H71       1.0  0.93707  0.39580  0.33143  1.0000
  H   H72       1.0  0.62040  0.01977  0.20614  1.0000
  H   H73       1.0  0.67549  0.02205  0.20830  1.0000
  H   H74       1.0  0.56237  0.10362  0.33129  1.0000
  H   H75       1.0  0.89485  0.06317  0.33132  1.0000
  H   H76       1.0  0.93637  0.10465  0.33609  1.0000
  H   H77       1.0  0.97946  0.12055  0.20530  1.0000
  H   H78       1.0  0.97757  0.17564  0.20750  1.0000
  H   H79       1.0  0.87898  0.47981  0.20575  1.0000
  H   H80       1.0  0.82387  0.47770  0.20794  1.0000
  C   C128      1.0  0.49942  0.26612  0.25323  1.0000
  C   C129      1.0  0.50010  0.23335  0.25319  1.0000
  C   C130      1.0  0.49990  0.21586  0.33344  1.0000
  C   C131      1.0  0.49979  0.28359  0.33350  1.0000
  H   H81       1.0  0.50105  0.22253  0.19258  1.0000
  H   H82       1.0  0.49834  0.27696  0.19266  1.0000
  C   C132      1.0  0.73334  0.99965  0.25380  1.0000
  C   C133      1.0  0.76611  0.00027  0.25377  1.0000
  C   C134      1.0  0.78360  0.99986  0.33402  1.0000
  C   C135      1.0  0.71586  0.99985  0.33409  1.0000
  H   H83       1.0  0.77695  0.00133  0.19319  1.0000
  H   H84       1.0  0.72249  0.99872  0.19322  1.0000
  C   C136      1.0  0.94174  0.41912  0.33280  1.0000
  C   C137      1.0  0.91907  0.44182  0.33513  1.0000
  N   N9        1.0  0.96463  0.46467  0.33397  1.0000
  C   C138      1.0  0.97088  0.43366  0.33380  1.0000
  C   C139      1.0  0.00003  0.41774  0.33396  1.0000
  N   N10       1.0  0.53560  0.46380  0.33418  1.0000
  C   C140      1.0  0.56654  0.46983  0.33404  1.0000
  C   C141      1.0  0.58123  0.44080  0.33302  1.0000
  C   C142      1.0  0.55854  0.41813  0.33539  1.0000
  C   C143      1.0  0.58169  0.49931  0.33424  1.0000
  C   C144      1.0  0.56580  0.02847  0.33426  1.0000
  N   N11       1.0  0.53480  0.03475  0.33390  1.0000
  C   C145      1.0  0.52856  0.06576  0.33358  1.0000
  C   C146      1.0  0.55769  0.08029  0.33259  1.0000
  C   C147      1.0  0.58036  0.05760  0.33527  1.0000
  N   N12       1.0  0.96385  0.03563  0.33376  1.0000
  C   C148      1.0  0.93291  0.02959  0.33362  1.0000
  C   C149      1.0  0.91775  0.50012  0.33392  1.0000
  C   C150      1.0  0.88436  0.49989  0.33407  1.0000
  C   C151      1.0  0.86744  0.01129  0.40794  1.0000
  C   C152      1.0  0.83468  0.01199  0.40673  1.0000
  C   C153      1.0  0.81726  0.49985  0.33403  1.0000
  C   C154      1.0  0.51120  0.13196  0.40720  1.0000
  C   C155      1.0  0.51205  0.16472  0.40595  1.0000
  C   C156      1.0  0.99988  0.18218  0.33338  1.0000
  C   C157      1.0  0.61508  0.49954  0.33429  1.0000
  C   C158      1.0  0.68219  0.49977  0.33416  1.0000
  C   C159      1.0  0.66481  0.48749  0.40676  1.0000
  C   C160      1.0  0.63205  0.48811  0.40802  1.0000
  C   C161      1.0  0.99978  0.38436  0.33367  1.0000
  C   C162      1.0  0.98834  0.36744  0.40749  1.0000
  C   C163      1.0  0.98759  0.33468  0.40622  1.0000
  C   C164      1.0  0.99973  0.31726  0.33352  1.0000
  H   H85       1.0  0.97758  0.32382  0.45962  1.0000
  H   H86       1.0  0.97969  0.37893  0.46198  1.0000
  H   H87       1.0  0.89574  0.43718  0.33651  1.0000
  H   H88       1.0  0.98045  0.48047  0.33397  1.0000
  H   H89       1.0  0.51898  0.01895  0.33388  1.0000
  H   H90       1.0  0.56305  0.39477  0.33653  1.0000
  H   H91       1.0  0.60459  0.43625  0.33173  1.0000
  H   H92       1.0  0.62060  0.47932  0.46239  1.0000
  H   H93       1.0  0.67570  0.47744  0.46004  1.0000
  H   H94       1.0  0.60369  0.06225  0.33686  1.0000
  H   H95       1.0  0.51987  0.12044  0.46161  1.0000
  H   H96       1.0  0.52214  0.17553  0.45930  1.0000
  H   H97       1.0  0.82383  0.02204  0.46008  1.0000
  H   H98       1.0  0.87892  0.02004  0.46231  1.0000
  C   C165      1.0  0.49967  0.23333  0.41372  1.0000
  C   C166      1.0  0.50023  0.26611  0.41375  1.0000
  H   H99       1.0  0.49875  0.22249  0.47431  1.0000
  H   H100      1.0  0.50127  0.27694  0.47433  1.0000
  C   C167      1.0  0.76613  0.99946  0.41429  1.0000
  C   C168      1.0  0.73336  0.00009  0.41433  1.0000
  H   H101      1.0  0.77697  0.99839  0.47486  1.0000
  H   H102      1.0  0.72254  0.00101  0.47495  1.0000
  C   C169      1.0  0.93363  0.97094  0.33411  1.0000
  C   C170      1.0  0.52952  0.93287  0.33430  1.0000
  C   C171      1.0  0.99940  0.58169  0.33362  1.0000
  C   C172      1.0  0.96991  0.56656  0.33385  1.0000
  C   C173      1.0  0.91820  0.55862  0.33250  1.0000
  C   C174      1.0  0.94090  0.58129  0.33492  1.0000
  C   C175      1.0  0.83471  0.98771  0.26137  1.0000
  C   C176      1.0  0.86747  0.98845  0.26022  1.0000
  C   C177      1.0  0.99967  0.61508  0.33343  1.0000
  C   C178      1.0  0.98763  0.66478  0.26080  1.0000
  C   C179      1.0  0.98827  0.63202  0.25962  1.0000
  C   C180      1.0  0.63194  0.51107  0.26047  1.0000
  C   C181      1.0  0.66470  0.51194  0.26164  1.0000
  C   C182      1.0  0.51115  0.86746  0.25974  1.0000
  C   C183      1.0  0.51186  0.83470  0.26084  1.0000
  H   H103      1.0  0.52190  0.82387  0.20746  1.0000
  H   H104      1.0  0.51990  0.87896  0.20540  1.0000
  H   H105      1.0  0.93707  0.89580  0.33143  1.0000
  H   H106      1.0  0.62040  0.51977  0.20614  1.0000
  H   H107      1.0  0.67549  0.52205  0.20830  1.0000
  H   H108      1.0  0.56237  0.60361  0.33129  1.0000
  H   H109      1.0  0.89485  0.56317  0.33132  1.0000
  H   H110      1.0  0.93637  0.60465  0.33609  1.0000
  H   H111      1.0  0.97946  0.62055  0.20530  1.0000
  H   H112      1.0  0.97757  0.67564  0.20750  1.0000
  H   H113      1.0  0.87898  0.97981  0.20575  1.0000
  H   H114      1.0  0.82387  0.97770  0.20794  1.0000
  C   C184      1.0  0.49942  0.76612  0.25323  1.0000
  C   C185      1.0  0.50010  0.73335  0.25319  1.0000
  C   C186      1.0  0.49990  0.71586  0.33344  1.0000
  C   C187      1.0  0.49979  0.78359  0.33350  1.0000
  H   H115      1.0  0.50105  0.72253  0.19258  1.0000
  H   H116      1.0  0.49834  0.77696  0.19266  1.0000
  C   C188      1.0  0.73334  0.49965  0.25380  1.0000
  C   C189      1.0  0.76611  0.50027  0.25377  1.0000
  C   C190      1.0  0.78360  0.49986  0.33402  1.0000
  C   C191      1.0  0.71586  0.49985  0.33409  1.0000
  H   H117      1.0  0.77695  0.50133  0.19319  1.0000
  H   H118      1.0  0.72249  0.49872  0.19322  1.0000
  C   C192      1.0  0.94174  0.91912  0.33280  1.0000
  C   C193      1.0  0.91907  0.94182  0.33513  1.0000
  N   N13       1.0  0.96463  0.96467  0.33397  1.0000
  C   C194      1.0  0.97088  0.93366  0.33380  1.0000
  C   C195      1.0  0.00003  0.91775  0.33396  1.0000
  N   N14       1.0  0.53560  0.96380  0.33418  1.0000
  C   C196      1.0  0.56654  0.96983  0.33404  1.0000
  C   C197      1.0  0.58123  0.94080  0.33302  1.0000
  C   C198      1.0  0.55854  0.91813  0.33539  1.0000
  C   C199      1.0  0.58169  0.99931  0.33424  1.0000
  C   C200      1.0  0.56580  0.52847  0.33426  1.0000
  N   N15       1.0  0.53480  0.53475  0.33390  1.0000
  C   C201      1.0  0.52856  0.56576  0.33358  1.0000
  C   C202      1.0  0.55769  0.58029  0.33259  1.0000
  C   C203      1.0  0.58036  0.55759  0.33527  1.0000
  N   N16       1.0  0.96385  0.53563  0.33376  1.0000
  C   C204      1.0  0.93291  0.52959  0.33362  1.0000
  C   C205      1.0  0.91775  0.00012  0.33392  1.0000
  C   C206      1.0  0.88436  0.99990  0.33407  1.0000
  C   C207      1.0  0.86744  0.51129  0.40794  1.0000
  C   C208      1.0  0.83468  0.51199  0.40673  1.0000
  C   C209      1.0  0.81726  0.99985  0.33403  1.0000
  C   C210      1.0  0.51120  0.63196  0.40720  1.0000
  C   C211      1.0  0.51205  0.66472  0.40595  1.0000
  C   C212      1.0  0.99988  0.68218  0.33338  1.0000
  C   C213      1.0  0.61508  0.99954  0.33429  1.0000
  C   C214      1.0  0.68219  0.99977  0.33416  1.0000
  C   C215      1.0  0.66481  0.98750  0.40676  1.0000
  C   C216      1.0  0.63205  0.98811  0.40802  1.0000
  C   C217      1.0  0.99978  0.88436  0.33367  1.0000
  C   C218      1.0  0.98834  0.86744  0.40749  1.0000
  C   C219      1.0  0.98759  0.83468  0.40622  1.0000
  C   C220      1.0  0.99973  0.81726  0.33352  1.0000
  H   H119      1.0  0.97758  0.82382  0.45962  1.0000
  H   H120      1.0  0.97969  0.87893  0.46198  1.0000
  H   H121      1.0  0.89574  0.93718  0.33651  1.0000
  H   H122      1.0  0.98045  0.98047  0.33397  1.0000
  H   H123      1.0  0.51898  0.51895  0.33388  1.0000
  H   H124      1.0  0.56305  0.89477  0.33653  1.0000
  H   H125      1.0  0.60459  0.93625  0.33173  1.0000
  H   H126      1.0  0.62060  0.97932  0.46239  1.0000
  H   H127      1.0  0.67570  0.97744  0.46004  1.0000
  H   H128      1.0  0.60369  0.56225  0.33686  1.0000
  H   H129      1.0  0.51987  0.62044  0.46161  1.0000
  H   H130      1.0  0.52214  0.67553  0.45930  1.0000
  H   H131      1.0  0.82383  0.52204  0.46008  1.0000
  H   H132      1.0  0.87892  0.52004  0.46231  1.0000
  C   C221      1.0  0.49967  0.73333  0.41372  1.0000
  C   C222      1.0  0.50023  0.76611  0.41375  1.0000
  H   H133      1.0  0.49875  0.72249  0.47431  1.0000
  H   H134      1.0  0.50127  0.77694  0.47433  1.0000
  C   C223      1.0  0.76613  0.49946  0.41429  1.0000
  C   C224      1.0  0.73336  0.50009  0.41433  1.0000
  H   H135      1.0  0.77697  0.49839  0.47486  1.0000
  H   H136      1.0  0.72254  0.50100  0.47495  1.0000
