data_image0
_chemical_formula_structural       C8H8NC2HCHNC2HCHC3NC3NC5NC5NC20H18N4CNCHCHCNCHCH
_chemical_formula_sum              "C56 H34 N12"
_cell_length_a       25.512
_cell_length_b       25.5099
_cell_length_c       14.9678
_cell_angle_alpha    90
_cell_angle_beta     90
_cell_angle_gamma    90.0307

_space_group_name_H-M_alt    "P 1"
_space_group_IT_number       1

loop_
  _space_group_symop_operation_xyz
  'x, y, z'

loop_
  _atom_site_type_symbol
  _atom_site_label
  _atom_site_symmetry_multiplicity
  _atom_site_fract_x
  _atom_site_fract_y
  _atom_site_fract_z
  _atom_site_occupancy
  C   C1        1.0  0.22343  0.99720  0.27370  1.0000
  C   C2        1.0  0.27859  0.99748  0.27275  1.0000
  C   C3        1.0  0.99765  0.78051  0.27359  1.0000
  C   C4        1.0  0.99758  0.72533  0.27247  1.0000
  C   C5        1.0  0.72573  0.00603  0.27735  1.0000
  C   C6        1.0  0.78090  0.00615  0.27763  1.0000
  C   C7        1.0  0.00671  0.22276  0.27774  1.0000
  C   C8        1.0  0.00688  0.27794  0.27730  1.0000
  H   H1        1.0  0.01333  0.29685  0.21815  1.0000
  H   H2        1.0  0.01280  0.20305  0.21906  1.0000
  H   H3        1.0  0.80053  0.01265  0.21899  1.0000
  H   H4        1.0  0.70675  0.01264  0.21834  1.0000
  H   H5        1.0  0.99145  0.80048  0.21520  1.0000
  H   H6        1.0  0.99129  0.70639  0.21311  1.0000
  H   H7        1.0  0.29763  0.99157  0.21336  1.0000
  H   H8        1.0  0.20356  0.99112  0.21517  1.0000
  N   N1        1.0  0.00447  0.54008  0.29047  1.0000
  C   C9        1.0  0.00408  0.48887  0.26581  1.0000
  C   C10       1.0  0.00196  0.44862  0.33078  1.0000
  H   H9        1.0  0.00544  0.48027  0.19911  1.0000
  C   C11       1.0  0.00198  0.39607  0.30556  1.0000
  H   H10       1.0  0.00424  0.38731  0.24098  1.0000
  N   N2        1.0  0.46368  0.00390  0.29114  1.0000
  C   C12       1.0  0.51486  0.00333  0.26640  1.0000
  C   C13       1.0  0.55514  0.00108  0.33130  1.0000
  H   H11       1.0  0.52343  0.00466  0.19968  1.0000
  C   C14       1.0  0.60767  0.00098  0.30597  1.0000
  H   H12       1.0  0.61638  0.00336  0.24139  1.0000
  C   C15       1.0  0.09738  0.13888  0.35834  1.0000
  C   C16       1.0  0.13630  0.10134  0.35714  1.0000
  C   C17       1.0  0.11256  0.05195  0.35713  1.0000
  N   N3        1.0  0.06026  0.06146  0.35787  1.0000
  C   C18       1.0  0.04887  0.11339  0.35826  1.0000
  C   C19       1.0  0.99929  0.13898  0.35876  1.0000
  C   C20       1.0  0.95008  0.11292  0.35912  1.0000
  N   N4        1.0  0.94089  0.06073  0.35886  1.0000
  C   C21       1.0  0.88907  0.04968  0.35885  1.0000
  C   C22       1.0  0.86332  0.09799  0.35950  1.0000
  C   C23       1.0  0.90088  0.13694  0.35918  1.0000
  C   C24       1.0  0.86479  0.99956  0.35853  1.0000
  C   C25       1.0  0.89212  0.95093  0.35822  1.0000
  N   N5        1.0  0.94443  0.94142  0.35773  1.0000
  C   C26       1.0  0.95581  0.88950  0.35677  1.0000
  C   C27       1.0  0.90730  0.86401  0.35730  1.0000
  C   C28       1.0  0.86838  0.90155  0.35766  1.0000
  C   C29       1.0  0.00539  0.86392  0.35577  1.0000
  C   C30       1.0  0.05460  0.88997  0.35587  1.0000
  N   N6        1.0  0.06379  0.94216  0.35639  1.0000
  C   C31       1.0  0.11561  0.95321  0.35575  1.0000
  C   C32       1.0  0.14136  0.90489  0.35518  1.0000
  C   C33       1.0  0.10379  0.86595  0.35472  1.0000
  C   C34       1.0  0.13990  0.00333  0.35591  1.0000
  C   C35       1.0  0.19579  0.00472  0.35448  1.0000
  C   C36       1.0  0.30745  0.00517  0.35216  1.0000
  C   C37       1.0  0.27959  0.01336  0.43280  1.0000
  C   C38       1.0  0.22443  0.01294  0.43402  1.0000
  C   C39       1.0  0.00587  0.80802  0.35430  1.0000
  C   C40       1.0  0.00563  0.69636  0.35164  1.0000
  C   C41       1.0  0.01447  0.72410  0.43221  1.0000
  C   C42       1.0  0.01439  0.77926  0.43360  1.0000
  C   C43       1.0  0.80889  0.99815  0.35791  1.0000
  C   C44       1.0  0.78061  0.98972  0.43777  1.0000
  C   C45       1.0  0.72545  0.98943  0.43721  1.0000
  C   C46       1.0  0.69725  0.99759  0.35725  1.0000
  C   C47       1.0  0.99877  0.19488  0.35816  1.0000
  C   C48       1.0  0.99077  0.22328  0.43801  1.0000
  C   C49       1.0  0.99882  0.30653  0.35719  1.0000
  C   C50       1.0  0.99077  0.27845  0.43731  1.0000
  H   H13       1.0  0.98506  0.29806  0.49620  1.0000
  H   H14       1.0  0.98507  0.20398  0.49719  1.0000
  H   H15       1.0  0.10416  0.17837  0.35885  1.0000
  H   H16       1.0  0.17552  0.10952  0.35640  1.0000
  H   H17       1.0  0.03413  0.03437  0.35773  1.0000
  H   H18       1.0  0.97056  0.96852  0.35755  1.0000
  H   H19       1.0  0.89295  0.17620  0.35910  1.0000
  H   H20       1.0  0.82380  0.10453  0.35990  1.0000
  H   H21       1.0  0.80000  0.98408  0.49688  1.0000
  H   H22       1.0  0.70592  0.98353  0.49614  1.0000
  H   H23       1.0  0.82915  0.89338  0.35751  1.0000
  H   H24       1.0  0.90052  0.82452  0.35704  1.0000
  H   H25       1.0  0.18088  0.89835  0.35480  1.0000
  H   H26       1.0  0.11172  0.82669  0.35381  1.0000
  H   H27       1.0  0.02065  0.79830  0.49287  1.0000
  H   H28       1.0  0.02119  0.70454  0.49065  1.0000
  H   H29       1.0  0.20529  0.01857  0.49337  1.0000
  H   H30       1.0  0.29906  0.01970  0.49145  1.0000
  N   N7        1.0  0.00496  0.64429  0.34474  1.0000
  N   N8        1.0  0.64518  0.99801  0.36322  1.0000
  N   N9        1.0  0.99919  0.35861  0.36293  1.0000
  N   N10       1.0  0.35953  0.00453  0.34543  1.0000
  C   C51       1.0  0.00030  0.46544  0.42088  1.0000
  N   N11       1.0  0.00080  0.51724  0.44131  1.0000
  C   C52       1.0  0.00285  0.55513  0.37760  1.0000
  H   H31       1.0  0.99881  0.43914  0.47233  1.0000
  C   C53       1.0  0.00334  0.60713  0.40276  1.0000
  H   H32       1.0  0.00177  0.61562  0.46750  1.0000
  C   C54       1.0  0.53837  0.99949  0.42143  1.0000
  N   N12       1.0  0.48658  0.00017  0.44194  1.0000
  C   C55       1.0  0.44867  0.00235  0.37828  1.0000
  H   H33       1.0  0.56469  0.99794  0.47283  1.0000
  C   C56       1.0  0.39667  0.00295  0.40347  1.0000
  H   H34       1.0  0.38818  0.00140  0.46821  1.0000
