data_image0
_chemical_formula_structural       C2H2C4H2CHC2HC17H11C17H12C4H4C4H4C2H2C10H8C13H9C4HC4H2NO2C4HC4H2NO2C4HNO2
_chemical_formula_sum              "C96 H63 N3 O6"
_cell_length_a       44.8307
_cell_length_b       44.8055
_cell_length_c       14.8688
_cell_angle_alpha    90
_cell_angle_beta     90
_cell_angle_gamma    120.03

_space_group_name_H-M_alt    "P 1"
_space_group_IT_number       1

loop_
  _space_group_symop_operation_xyz
  'x, y, z'

loop_
  _atom_site_type_symbol
  _atom_site_label
  _atom_site_symmetry_multiplicity
  _atom_site_fract_x
  _atom_site_fract_y
  _atom_site_fract_z
  _atom_site_occupancy
  C   C1        1.0  0.04423  0.54016  0.28274  1.0000
  C   C2        1.0  0.08050  0.55699  0.28231  1.0000
  H   H1        1.0  0.03212  0.54850  0.23963  1.0000
  H   H2        1.0  0.09363  0.57664  0.23746  1.0000
  C   C3        1.0  0.02479  0.51271  0.34289  1.0000
  C   C4        1.0  0.09857  0.54665  0.34097  1.0000
  C   C5        1.0  0.07889  0.51888  0.40032  1.0000
  C   C6        1.0  0.04268  0.50224  0.40142  1.0000
  H   H3        1.0  0.09082  0.51085  0.44494  1.0000
  H   H4        1.0  0.02942  0.48223  0.44525  1.0000
  C   C7        1.0  0.15286  0.54471  0.34454  1.0000
  H   H5        1.0  0.13929  0.51832  0.34446  1.0000
  C   C8        1.0  0.13542  0.56372  0.34098  1.0000
  C   C9        1.0  0.15572  0.60016  0.33981  1.0000
  H   H6        1.0  0.14423  0.61496  0.33944  1.0000
  C   C10       1.0  0.18906  0.56139  0.34776  1.0000
  C   C11       1.0  0.19196  0.61691  0.34331  1.0000
  C   C12       1.0  0.45330  0.85519  0.33695  1.0000
  C   C13       1.0  0.43389  0.81892  0.34052  1.0000
  C   C14       1.0  0.38094  0.74325  0.30233  1.0000
  C   C15       1.0  0.36042  0.70755  0.30907  1.0000
  C   C16       1.0  0.32400  0.69116  0.30859  1.0000
  C   C17       1.0  0.30319  0.65482  0.30910  1.0000
  C   C18       1.0  0.31955  0.63477  0.30832  1.0000
  C   C19       1.0  0.35587  0.65031  0.30881  1.0000
  C   C20       1.0  0.37593  0.68675  0.30829  1.0000
  C   C21       1.0  0.37104  0.62979  0.30203  1.0000
  C   C22       1.0  0.41280  0.61330  0.34700  1.0000
  C   C23       1.0  0.39381  0.57692  0.34042  1.0000
  C   C24       1.0  0.41067  0.55754  0.33678  1.0000
  C   C25       1.0  0.26749  0.63966  0.30259  1.0000
  C   C26       1.0  0.20922  0.59776  0.34706  1.0000
  H   H7        1.0  0.47958  0.86674  0.33419  1.0000
  H   H8        1.0  0.44666  0.80532  0.33993  1.0000
  H   H9        1.0  0.40226  0.69832  0.30530  1.0000
  H   H10       1.0  0.31245  0.70595  0.30586  1.0000
  H   H11       1.0  0.30478  0.60842  0.30540  1.0000
  H   H12       1.0  0.39595  0.53123  0.33442  1.0000
  H   H13       1.0  0.36744  0.56411  0.34013  1.0000
  H   H14       1.0  0.20059  0.54662  0.35088  1.0000
  H   H15       1.0  0.36184  0.61152  0.25502  1.0000
  H   H16       1.0  0.39916  0.75233  0.25518  1.0000
  H   H17       1.0  0.25841  0.64913  0.25632  1.0000
  C   C27       1.0  0.56125  0.15343  0.31300  1.0000
  C   C28       1.0  0.58007  0.18971  0.31664  1.0000
  C   C29       1.0  0.63322  0.26571  0.29734  1.0000
  C   C30       1.0  0.65318  0.30132  0.30542  1.0000
  C   C31       1.0  0.68959  0.31793  0.30507  1.0000
  C   C32       1.0  0.71003  0.35430  0.30546  1.0000
  C   C33       1.0  0.69343  0.37411  0.30462  1.0000
  C   C34       1.0  0.65709  0.35817  0.30503  1.0000
  C   C35       1.0  0.63726  0.32174  0.30460  1.0000
  C   C36       1.0  0.64148  0.37814  0.29677  1.0000
  C   C37       1.0  0.60212  0.39701  0.34923  1.0000
  C   C38       1.0  0.61860  0.43124  0.31608  1.0000
  C   C39       1.0  0.60116  0.45006  0.31249  1.0000
  C   C40       1.0  0.74564  0.36989  0.29747  1.0000
  C   C41       1.0  0.80392  0.40986  0.34843  1.0000
  C   C42       1.0  0.82401  0.44479  0.37481  1.0000
  C   C43       1.0  0.86025  0.46188  0.37230  1.0000
  H   H18       1.0  0.53640  0.14162  0.29002  1.0000
  H   H19       1.0  0.56823  0.20301  0.29601  1.0000
  H   H20       1.0  0.61092  0.30995  0.30140  1.0000
  H   H21       1.0  0.70135  0.30334  0.30222  1.0000
  H   H22       1.0  0.70801  0.40048  0.30135  1.0000
  H   H23       1.0  0.61425  0.47497  0.28979  1.0000
  H   H24       1.0  0.64378  0.44314  0.29578  1.0000
  H   H25       1.0  0.87382  0.48716  0.39196  1.0000
  H   H26       1.0  0.81240  0.45817  0.39683  1.0000
  H   H27       1.0  0.64762  0.39323  0.24285  1.0000
  H   H28       1.0  0.61824  0.25671  0.24326  1.0000
  H   H29       1.0  0.75460  0.36300  0.24499  1.0000
  C   C44       1.0  0.54917  0.47332  0.26626  1.0000
  C   C45       1.0  0.53190  0.49228  0.26660  1.0000
  C   C46       1.0  0.47148  0.50685  0.28082  1.0000
  C   C47       1.0  0.45461  0.52624  0.28026  1.0000
  H   H30       1.0  0.46367  0.48685  0.23637  1.0000
  H   H31       1.0  0.43547  0.52014  0.23407  1.0000
  H   H32       1.0  0.56100  0.47241  0.20825  1.0000
  H   H33       1.0  0.53226  0.50512  0.20924  1.0000
  C   C48       1.0  0.53787  0.07814  0.26708  1.0000
  C   C49       1.0  0.51887  0.04188  0.26733  1.0000
  C   C50       1.0  0.50406  0.96677  0.28115  1.0000
  C   C51       1.0  0.48462  0.93048  0.28057  1.0000
  H   H34       1.0  0.52401  0.97896  0.23660  1.0000
  H   H35       1.0  0.49062  0.91743  0.23420  1.0000
  H   H36       1.0  0.53881  0.09090  0.20909  1.0000
  H   H37       1.0  0.50602  0.02942  0.20995  1.0000
  C   C52       1.0  0.93298  0.46239  0.26554  1.0000
  C   C53       1.0  0.96921  0.47958  0.26608  1.0000
  H   H38       1.0  0.92023  0.45084  0.20729  1.0000
  H   H39       1.0  0.98173  0.47950  0.20853  1.0000
  C   C54       1.0  0.43716  0.87542  0.34122  1.0000
  C   C55       1.0  0.39754  0.80155  0.34754  1.0000
  C   C56       1.0  0.38132  0.82166  0.35129  1.0000
  C   C57       1.0  0.40077  0.85789  0.34798  1.0000
  C   C58       1.0  0.37772  0.76582  0.35541  1.0000
  C   C59       1.0  0.39690  0.63311  0.35492  1.0000
  C   C60       1.0  0.44914  0.62958  0.35037  1.0000
  C   C61       1.0  0.44707  0.57375  0.34070  1.0000
  C   C62       1.0  0.46593  0.61017  0.34708  1.0000
  C   C63       1.0  0.24492  0.61353  0.35483  1.0000
  H   H40       1.0  0.38793  0.87140  0.35022  1.0000
  H   H41       1.0  0.35507  0.81007  0.35680  1.0000
  H   H42       1.0  0.20562  0.64329  0.34497  1.0000
  H   H43       1.0  0.46381  0.65586  0.35558  1.0000
  H   H44       1.0  0.49229  0.62305  0.34903  1.0000
  H   H45       1.0  0.40616  0.65156  0.40150  1.0000
  H   H46       1.0  0.35932  0.75662  0.40210  1.0000
  H   H47       1.0  0.25406  0.60399  0.40072  1.0000
  C   C64       1.0  0.57560  0.13352  0.34446  1.0000
  C   C65       1.0  0.61422  0.20747  0.35026  1.0000
  C   C66       1.0  0.62861  0.18752  0.38109  1.0000
  C   C67       1.0  0.60966  0.15126  0.37838  1.0000
  C   C68       1.0  0.63331  0.24337  0.35771  1.0000
  C   C69       1.0  0.61890  0.37793  0.35681  1.0000
  C   C70       1.0  0.56771  0.38252  0.37964  1.0000
  C   C71       1.0  0.56683  0.43561  0.34350  1.0000
  C   C72       1.0  0.55042  0.40147  0.37696  1.0000
  C   C73       1.0  0.76807  0.39330  0.35595  1.0000
  C   C74       1.0  0.82148  0.39265  0.31942  1.0000
  C   C75       1.0  0.87772  0.44472  0.34275  1.0000
  C   C76       1.0  0.85773  0.40989  0.31573  1.0000
  H   H48       1.0  0.62114  0.13786  0.40108  1.0000
  H   H49       1.0  0.65316  0.19926  0.40639  1.0000
  H   H50       1.0  0.80805  0.36712  0.30215  1.0000
  H   H51       1.0  0.55484  0.35791  0.40462  1.0000
  H   H52       1.0  0.52550  0.38993  0.39937  1.0000
  H   H53       1.0  0.86946  0.39638  0.29591  1.0000
  H   H54       1.0  0.61294  0.36233  0.40977  1.0000
  H   H55       1.0  0.64880  0.25303  0.41084  1.0000
  H   H56       1.0  0.75852  0.40003  0.40760  1.0000
  C   C77       1.0  0.54958  0.45515  0.34352  1.0000
  C   C78       1.0  0.51496  0.49428  0.34469  1.0000
  C   C79       1.0  0.51528  0.47632  0.42317  1.0000
  C   C80       1.0  0.53238  0.45694  0.42130  1.0000
  H   H57       1.0  0.53259  0.44435  0.47856  1.0000
  C   C81       1.0  0.49824  0.51427  0.34278  1.0000
  C   C82       1.0  0.46420  0.55402  0.34071  1.0000
  C   C83       1.0  0.49129  0.56156  0.40192  1.0000
  C   C84       1.0  0.50799  0.54204  0.40302  1.0000
  H   H58       1.0  0.49879  0.58106  0.44780  1.0000
  H   H59       1.0  0.52752  0.54842  0.44817  1.0000
  N   N1        1.0  0.49775  0.47720  0.50155  1.0000
  O   O1        1.0  0.51796  0.48983  0.56717  1.0000
  O   O2        1.0  0.47394  0.44762  0.52274  1.0000
  C   C85       1.0  0.55605  0.09670  0.34437  1.0000
  C   C86       1.0  0.51684  0.02288  0.34537  1.0000
  C   C87       1.0  0.53481  0.04113  0.42386  1.0000
  C   C88       1.0  0.55422  0.07764  0.42208  1.0000
  H   H60       1.0  0.56681  0.09042  0.47938  1.0000
  C   C89       1.0  0.49678  0.98615  0.34338  1.0000
  C   C90       1.0  0.45691  0.91231  0.34121  1.0000
  C   C91       1.0  0.44950  0.93190  0.40264  1.0000
  C   C92       1.0  0.46907  0.96813  0.40378  1.0000
  H   H61       1.0  0.43007  0.91989  0.44868  1.0000
  H   H62       1.0  0.46280  0.98131  0.44912  1.0000
  N   N2        1.0  0.53393  0.02268  0.50215  1.0000
  O   O3        1.0  0.52135  0.03026  0.56788  1.0000
  O   O4        1.0  0.56348  0.02840  0.52324  1.0000
  C   C93       1.0  0.91444  0.46177  0.34301  1.0000
  C   C94       1.0  0.98810  0.49605  0.34468  1.0000
  C   C95       1.0  0.96980  0.49533  0.42350  1.0000
  C   C96       1.0  0.93333  0.47848  0.42132  1.0000
  H   H63       1.0  0.92045  0.47803  0.47865  1.0000
  N   N3        1.0  0.98818  0.51214  0.50258  1.0000
  O   O5        1.0  0.98038  0.49132  0.56688  1.0000
  O   O6        1.0  0.98260  0.53588  0.52572  1.0000
