data_image0
_chemical_formula_structural       C2H2C2H2C2H2C2H2C2H2C2H2C4NC2NHCH3C4NC2NHCH3C4NC2NHCH3C4NC2NHCH3C4NC2NHCH3C4NC2NHCH3C4NC2NC4NC2NC4NC2NC4NC2NC4NC2NC4NC2NCNCNCNCNCNCNCNCNCNCNCNCNCNCNCNCNCNCNCNCNCNCNCNCNCNCNCNCNCNCNCNCNCNCNCNCNC4NC2NHCH3C4NC2NHCH3C4NC2NHCH3C4NC2NHCH3C4NC2NHCH3C4NC2NHCH3C2H2C2H2C2H2C2H2C2H2C2H2C2H3CH3C2H3CH3C2H3CH3C2H3CH3C2H3CH3C2H3CH3
_chemical_formula_sum              "C198 H108 N72"
_cell_length_a       37.1241
_cell_length_b       37.1241
_cell_length_c       14.8261
_cell_angle_alpha    90
_cell_angle_beta     90
_cell_angle_gamma    120

_space_group_name_H-M_alt    "P 1"
_space_group_IT_number       1

loop_
  _space_group_symop_operation_xyz
  'x, y, z'

loop_
  _atom_site_type_symbol
  _atom_site_label
  _atom_site_symmetry_multiplicity
  _atom_site_fract_x
  _atom_site_fract_y
  _atom_site_fract_z
  _atom_site_occupancy
  C   C1        1.0  0.22680  0.37557  0.34743  1.0000
  C   C2        1.0  0.24900  0.41936  0.34020  1.0000
  H   H1        1.0  0.27673  0.43267  0.30641  1.0000
  H   H2        1.0  0.23974  0.35948  0.31942  1.0000
  C   C3        1.0  0.63037  0.84549  0.34729  1.0000
  C   C4        1.0  0.58659  0.82392  0.34016  1.0000
  H   H3        1.0  0.57327  0.83832  0.30633  1.0000
  H   H4        1.0  0.64646  0.87449  0.31918  1.0000
  C   C5        1.0  0.16050  0.77920  0.34710  1.0000
  C   C6        1.0  0.18205  0.75697  0.33983  1.0000
  H   H5        1.0  0.16765  0.72928  0.30590  1.0000
  H   H6        1.0  0.13148  0.76630  0.31907  1.0000
  C   C7        1.0  0.78501  0.62461  0.34721  1.0000
  C   C8        1.0  0.76282  0.58083  0.33985  1.0000
  H   H7        1.0  0.73510  0.56753  0.30599  1.0000
  H   H8        1.0  0.77212  0.64072  0.31907  1.0000
  C   C9        1.0  0.38142  0.15471  0.34749  1.0000
  C   C10       1.0  0.42521  0.17630  0.34026  1.0000
  H   H9        1.0  0.43854  0.16190  0.30646  1.0000
  H   H10       1.0  0.36534  0.12569  0.31949  1.0000
  C   C11       1.0  0.85132  0.22102  0.34730  1.0000
  C   C12       1.0  0.82976  0.24325  0.34016  1.0000
  H   H11       1.0  0.84416  0.27097  0.30633  1.0000
  H   H12       1.0  0.88032  0.23394  0.31920  1.0000
  C   C13       1.0  0.18523  0.22115  0.38807  1.0000
  C   C14       1.0  0.22180  0.23419  0.33585  1.0000
  C   C15       1.0  0.24323  0.21121  0.33599  1.0000
  C   C16       1.0  0.22898  0.17456  0.38861  1.0000
  N   N1        1.0  0.27660  0.22441  0.28010  1.0000
  C   C17       1.0  0.29109  0.25809  0.22518  1.0000
  C   C18       1.0  0.27004  0.28080  0.22605  1.0000
  N   N2        1.0  0.23647  0.26789  0.28043  1.0000
  H   H13       1.0  0.27914  0.30622  0.18571  1.0000
  C   C19       1.0  0.32697  0.26934  0.16560  1.0000
  H   H14       1.0  0.33889  0.24797  0.17435  1.0000
  H   H15       1.0  0.35185  0.30076  0.18099  1.0000
  H   H16       1.0  0.31762  0.26805  0.09529  1.0000
  C   C20       1.0  0.78480  0.95835  0.38792  1.0000
  C   C21       1.0  0.77171  0.98187  0.33583  1.0000
  C   C22       1.0  0.79470  0.02629  0.33596  1.0000
  C   C23       1.0  0.83138  0.04869  0.38846  1.0000
  N   N3        1.0  0.78145  0.04646  0.28018  1.0000
  C   C24       1.0  0.74774  0.02727  0.22537  1.0000
  C   C25       1.0  0.72503  0.98351  0.22624  1.0000
  N   N4        1.0  0.73798  0.96285  0.28051  1.0000
  H   H17       1.0  0.69959  0.96719  0.18597  1.0000
  C   C26       1.0  0.73644  0.05190  0.16590  1.0000
  H   H18       1.0  0.75781  0.08519  0.17464  1.0000
  H   H19       1.0  0.70503  0.04536  0.18142  1.0000
  H   H20       1.0  0.73768  0.04384  0.09557  1.0000
  C   C27       1.0  0.04765  0.82075  0.38811  1.0000
  C   C28       1.0  0.02413  0.78417  0.33590  1.0000
  C   C29       1.0  0.97971  0.76275  0.33601  1.0000
  C   C30       1.0  0.95731  0.77700  0.38860  1.0000
  N   N5        1.0  0.95955  0.72937  0.28013  1.0000
  C   C31       1.0  0.97873  0.71488  0.22523  1.0000
  C   C32       1.0  0.02249  0.73593  0.22610  1.0000
  N   N6        1.0  0.04315  0.76950  0.28049  1.0000
  H   H21       1.0  0.03882  0.72683  0.18579  1.0000
  C   C33       1.0  0.95411  0.67899  0.16566  1.0000
  H   H22       1.0  0.92082  0.66706  0.17440  1.0000
  H   H23       1.0  0.96066  0.65411  0.18106  1.0000
  H   H24       1.0  0.96217  0.68834  0.09534  1.0000
  C   C34       1.0  0.82656  0.77900  0.38801  1.0000
  C   C35       1.0  0.78995  0.76592  0.33590  1.0000
  C   C36       1.0  0.76852  0.78890  0.33600  1.0000
  C   C37       1.0  0.78279  0.82559  0.38848  1.0000
  N   N7        1.0  0.73510  0.77564  0.28021  1.0000
  C   C38       1.0  0.72057  0.74192  0.22542  1.0000
  C   C39       1.0  0.74164  0.71923  0.22630  1.0000
  N   N8        1.0  0.77524  0.73218  0.28059  1.0000
  H   H25       1.0  0.73251  0.69376  0.18608  1.0000
  C   C40       1.0  0.68464  0.73060  0.16597  1.0000
  H   H26       1.0  0.67271  0.75197  0.17469  1.0000
  H   H27       1.0  0.65978  0.69919  0.18151  1.0000
  H   H28       1.0  0.69393  0.73184  0.09563  1.0000
  C   C41       1.0  0.22701  0.04183  0.38819  1.0000
  C   C42       1.0  0.24006  0.01830  0.33600  1.0000
  C   C43       1.0  0.21707  0.97388  0.33610  1.0000
  C   C44       1.0  0.18043  0.95149  0.38870  1.0000
  N   N9        1.0  0.23029  0.95373  0.28022  1.0000
  C   C45       1.0  0.26397  0.97291  0.22532  1.0000
  C   C46       1.0  0.28667  0.01668  0.22619  1.0000
  N   N10       1.0  0.27376  0.03733  0.28058  1.0000
  H   H29       1.0  0.31210  0.03300  0.18589  1.0000
  C   C47       1.0  0.27524  0.94829  0.16575  1.0000
  H   H30       1.0  0.25387  0.91500  0.17449  1.0000
  H   H31       1.0  0.30666  0.95484  0.18115  1.0000
  H   H32       1.0  0.27395  0.95635  0.09543  1.0000
  C   C48       1.0  0.96415  0.17942  0.38795  1.0000
  C   C49       1.0  0.98768  0.21599  0.33573  1.0000
  C   C50       1.0  0.03210  0.23741  0.33587  1.0000
  C   C51       1.0  0.05448  0.22315  0.38849  1.0000
  N   N11       1.0  0.05227  0.27078  0.27999  1.0000
  C   C52       1.0  0.03309  0.28528  0.22506  1.0000
  C   C53       1.0  0.98933  0.26422  0.22589  1.0000
  N   N12       1.0  0.96866  0.23066  0.28029  1.0000
  H   H33       1.0  0.97301  0.27333  0.18558  1.0000
  C   C54       1.0  0.05773  0.32116  0.16549  1.0000
  H   H34       1.0  0.09101  0.33308  0.17425  1.0000
  H   H35       1.0  0.05118  0.34604  0.18086  1.0000
  H   H36       1.0  0.04967  0.31181  0.09517  1.0000
  C   C55       1.0  0.22916  0.64798  0.28129  1.0000
  C   C56       1.0  0.24007  0.63399  0.20255  1.0000
  C   C57       1.0  0.24134  0.59644  0.20243  1.0000
  C   C58       1.0  0.23158  0.57164  0.28118  1.0000
  N   N13       1.0  0.25062  0.58417  0.12332  1.0000
  C   C59       1.0  0.25819  0.60548  0.04452  1.0000
  C   C60       1.0  0.25689  0.64271  0.04547  1.0000
  N   N14       1.0  0.24824  0.65557  0.12381  1.0000
  C   C61       1.0  0.35807  0.57539  0.28237  1.0000
  C   C62       1.0  0.37204  0.60019  0.20348  1.0000
  C   C63       1.0  0.40955  0.63904  0.20326  1.0000
  C   C64       1.0  0.43428  0.65415  0.28206  1.0000
  N   N15       1.0  0.42181  0.66054  0.12409  1.0000
  C   C65       1.0  0.40051  0.64671  0.04529  1.0000
  C   C66       1.0  0.36329  0.60816  0.04634  1.0000
  N   N16       1.0  0.35047  0.58670  0.12475  1.0000
  C   C67       1.0  0.43054  0.77692  0.28185  1.0000
  C   C68       1.0  0.40581  0.76608  0.20289  1.0000
  C   C69       1.0  0.36696  0.76476  0.20244  1.0000
  C   C70       1.0  0.35178  0.77438  0.28113  1.0000
  N   N17       1.0  0.34553  0.75547  0.12318  1.0000
  C   C71       1.0  0.35942  0.74796  0.04452  1.0000
  C   C72       1.0  0.39797  0.74931  0.04581  1.0000
  N   N18       1.0  0.41936  0.75795  0.12430  1.0000
  C   C73       1.0  0.78275  0.35229  0.28188  1.0000
  C   C74       1.0  0.77192  0.36618  0.20289  1.0000
  C   C75       1.0  0.77062  0.40370  0.20237  1.0000
  C   C76       1.0  0.78025  0.42856  0.28099  1.0000
  N   N19       1.0  0.76135  0.41583  0.12307  1.0000
  C   C77       1.0  0.75383  0.39441  0.04445  1.0000
  C   C78       1.0  0.75515  0.35719  0.04581  1.0000
  N   N20       1.0  0.76379  0.34446  0.12434  1.0000
  C   C79       1.0  0.65386  0.42469  0.28120  1.0000
  C   C80       1.0  0.63984  0.39982  0.20244  1.0000
  C   C81       1.0  0.60227  0.36103  0.20241  1.0000
  C   C82       1.0  0.57750  0.34600  0.28121  1.0000
  N   N21       1.0  0.58998  0.33944  0.12336  1.0000
  C   C83       1.0  0.61127  0.35313  0.04452  1.0000
  C   C84       1.0  0.64852  0.39165  0.04539  1.0000
  N   N22       1.0  0.66142  0.41318  0.12369  1.0000
  C   C85       1.0  0.58123  0.22327  0.28233  1.0000
  C   C86       1.0  0.60602  0.23402  0.20347  1.0000
  C   C87       1.0  0.64486  0.23533  0.20331  1.0000
  C   C88       1.0  0.65997  0.22576  0.28218  1.0000
  N   N23       1.0  0.66636  0.24454  0.12416  1.0000
  C   C89       1.0  0.65254  0.25198  0.04533  1.0000
  C   C90       1.0  0.61398  0.25063  0.04630  1.0000
  N   N24       1.0  0.59253  0.24208  0.12471  1.0000
  C   C91       1.0  0.16319  0.24379  0.39007  1.0000
  N   N25       1.0  0.18385  0.28626  0.38805  1.0000
  C   C92       1.0  0.16417  0.30899  0.38907  1.0000
  N   N26       1.0  0.12177  0.28697  0.38950  1.0000
  C   C93       1.0  0.09912  0.24459  0.39101  1.0000
  N   N27       1.0  0.12075  0.22378  0.39228  1.0000
  C   C94       1.0  0.76216  0.91367  0.38993  1.0000
  N   N28       1.0  0.71969  0.89186  0.38790  1.0000
  C   C95       1.0  0.69695  0.84944  0.38894  1.0000
  N   N29       1.0  0.71898  0.82907  0.38943  1.0000
  C   C96       1.0  0.76136  0.84879  0.39094  1.0000
  N   N30       1.0  0.78217  0.89123  0.39216  1.0000
  C   C97       1.0  0.09233  0.84279  0.39014  1.0000
  N   N31       1.0  0.11413  0.82212  0.38805  1.0000
  C   C98       1.0  0.15655  0.84179  0.38909  1.0000
  N   N32       1.0  0.17694  0.88419  0.38960  1.0000
  C   C99       1.0  0.15721  0.90684  0.39117  1.0000
  N   N33       1.0  0.11477  0.88523  0.39240  1.0000
  C   C100      1.0  0.84860  0.75637  0.39005  1.0000
  N   N34       1.0  0.82794  0.71390  0.38801  1.0000
  C   C101      1.0  0.84762  0.69116  0.38905  1.0000
  N   N35       1.0  0.89002  0.71318  0.38954  1.0000
  C   C102      1.0  0.91267  0.75556  0.39109  1.0000
  N   N36       1.0  0.89104  0.77638  0.39230  1.0000
  C   C103      1.0  0.24964  0.08651  0.39018  1.0000
  N   N37       1.0  0.29211  0.10832  0.38814  1.0000
  C   C104      1.0  0.31484  0.15074  0.38915  1.0000
  N   N38       1.0  0.29280  0.17111  0.38960  1.0000
  C   C105      1.0  0.25042  0.15136  0.39114  1.0000
  N   N39       1.0  0.22962  0.10893  0.39240  1.0000
  C   C106      1.0  0.91947  0.15739  0.38996  1.0000
  N   N40       1.0  0.89768  0.17806  0.38792  1.0000
  C   C107      1.0  0.85526  0.15839  0.38896  1.0000
  N   N41       1.0  0.83487  0.11599  0.38943  1.0000
  C   C108      1.0  0.85460  0.09333  0.39095  1.0000
  N   N42       1.0  0.89703  0.11495  0.39218  1.0000
  C   C109      1.0  0.31488  0.54799  0.29457  1.0000
  N   N43       1.0  0.29598  0.50986  0.33485  1.0000
  C   C110      1.0  0.25400  0.48824  0.35185  1.0000
  N   N44       1.0  0.23187  0.50803  0.33468  1.0000
  C   C111      1.0  0.24933  0.54594  0.29362  1.0000
  N   N45       1.0  0.29039  0.56428  0.27409  1.0000
  C   C112      1.0  0.45794  0.76116  0.29454  1.0000
  N   N46       1.0  0.49607  0.78044  0.33479  1.0000
  C   C113      1.0  0.51768  0.76010  0.35212  1.0000
  N   N47       1.0  0.49784  0.71813  0.33532  1.0000
  C   C114      1.0  0.45984  0.69761  0.29464  1.0000
  N   N48       1.0  0.44158  0.72033  0.27450  1.0000
  C   C115      1.0  0.24475  0.69115  0.29333  1.0000
  N   N49       1.0  0.22555  0.70997  0.33410  1.0000
  C   C116      1.0  0.24590  0.75190  0.35150  1.0000
  N   N50       1.0  0.28784  0.77406  0.33451  1.0000
  C   C117      1.0  0.30833  0.75667  0.29331  1.0000
  N   N51       1.0  0.28558  0.71565  0.27330  1.0000
  C   C118      1.0  0.69702  0.45232  0.29325  1.0000
  N   N52       1.0  0.71581  0.49032  0.33410  1.0000
  C   C119      1.0  0.75775  0.51193  0.35148  1.0000
  N   N53       1.0  0.77993  0.49217  0.33444  1.0000
  C   C120      1.0  0.76256  0.45432  0.29315  1.0000
  N   N54       1.0  0.72154  0.43603  0.27313  1.0000
  C   C121      1.0  0.55384  0.23906  0.29471  1.0000
  N   N55       1.0  0.51570  0.21983  0.33495  1.0000
  C   C122      1.0  0.49409  0.24020  0.35195  1.0000
  N   N56       1.0  0.51390  0.28213  0.33482  1.0000
  C   C123      1.0  0.55186  0.30258  0.29394  1.0000
  N   N57       1.0  0.57016  0.27984  0.27426  1.0000
  C   C124      1.0  0.76696  0.30914  0.29468  1.0000
  N   N58       1.0  0.78626  0.29028  0.33483  1.0000
  C   C125      1.0  0.76592  0.24833  0.35214  1.0000
  N   N59       1.0  0.72396  0.22620  0.33540  1.0000
  C   C126      1.0  0.70342  0.24367  0.29478  1.0000
  N   N60       1.0  0.72613  0.28466  0.27466  1.0000
  C   C127      1.0  0.23282  0.44438  0.37265  1.0000
  C   C128      1.0  0.19339  0.42302  0.41586  1.0000
  C   C129      1.0  0.17092  0.37865  0.42329  1.0000
  C   C130      1.0  0.18680  0.35385  0.38720  1.0000
  N   N61       1.0  0.13400  0.36096  0.46818  1.0000
  C   C131      1.0  0.11700  0.38240  0.50563  1.0000
  C   C132      1.0  0.13917  0.42601  0.49735  1.0000
  N   N62       1.0  0.17613  0.44432  0.45347  1.0000
  H   H37       1.0  0.12815  0.44396  0.52429  1.0000
  C   C133      1.0  0.07696  0.36027  0.55376  1.0000
  H   H38       1.0  0.06479  0.32672  0.55338  1.0000
  H   H39       1.0  0.05428  0.36654  0.52141  1.0000
  H   H40       1.0  0.08111  0.37081  0.62371  1.0000
  C   C134      1.0  0.56155  0.78276  0.37281  1.0000
  C   C135      1.0  0.58292  0.76469  0.41602  1.0000
  C   C136      1.0  0.62729  0.78657  0.42334  1.0000
  C   C137      1.0  0.65210  0.82722  0.38712  1.0000
  N   N63       1.0  0.64499  0.76735  0.46826  1.0000
  C   C138      1.0  0.62355  0.72894  0.50583  1.0000
  C   C139      1.0  0.57994  0.70752  0.49766  1.0000
  N   N64       1.0  0.56162  0.72616  0.45376  1.0000
  H   H41       1.0  0.56198  0.67857  0.52470  1.0000
  C   C140      1.0  0.64568  0.71104  0.55397  1.0000
  H   H42       1.0  0.67924  0.73241  0.55349  1.0000
  H   H43       1.0  0.63938  0.68206  0.52169  1.0000
  H   H44       1.0  0.63518  0.70470  0.62395  1.0000
  C   C141      1.0  0.22323  0.77309  0.37239  1.0000
  C   C142      1.0  0.24128  0.81246  0.41584  1.0000
  C   C143      1.0  0.21940  0.83495  0.42336  1.0000
  C   C144      1.0  0.17876  0.81915  0.38712  1.0000
  N   N65       1.0  0.23861  0.87181  0.46851  1.0000
  C   C145      1.0  0.27701  0.88873  0.50612  1.0000
  C   C146      1.0  0.29843  0.86656  0.49774  1.0000
  N   N66       1.0  0.27981  0.82965  0.45362  1.0000
  H   H45       1.0  0.32737  0.87752  0.52480  1.0000
  C   C147      1.0  0.29489  0.92870  0.55452  1.0000
  H   H46       1.0  0.27352  0.94089  0.55418  1.0000
  H   H47       1.0  0.32388  0.95142  0.52237  1.0000
  H   H48       1.0  0.30120  0.92444  0.62446  1.0000
  C   C148      1.0  0.77890  0.55576  0.37254  1.0000
  C   C149      1.0  0.81831  0.57711  0.41587  1.0000
  C   C150      1.0  0.84080  0.62147  0.42334  1.0000
  C   C151      1.0  0.82498  0.64631  0.38714  1.0000
  N   N67       1.0  0.87769  0.63914  0.46838  1.0000
  C   C152      1.0  0.89463  0.61767  0.50593  1.0000
  C   C153      1.0  0.87244  0.57407  0.49762  1.0000
  N   N68       1.0  0.83552  0.55578  0.45359  1.0000
  H   H49       1.0  0.88342  0.55610  0.52464  1.0000
  C   C154      1.0  0.93462  0.63977  0.55423  1.0000
  H   H50       1.0  0.94681  0.67333  0.55386  1.0000
  H   H51       1.0  0.95732  0.63349  0.52201  1.0000
  H   H52       1.0  0.93040  0.62922  0.62418  1.0000
  C   C155      1.0  0.45022  0.21752  0.37266  1.0000
  C   C156      1.0  0.42886  0.23557  0.41590  1.0000
  C   C157      1.0  0.38449  0.21367  0.42334  1.0000
  C   C158      1.0  0.35969  0.17299  0.38725  1.0000
  N   N69       1.0  0.36680  0.23289  0.46826  1.0000
  C   C159      1.0  0.38823  0.27132  0.50572  1.0000
  C   C160      1.0  0.43184  0.29277  0.49742  1.0000
  N   N70       1.0  0.45016  0.27414  0.45352  1.0000
  H   H53       1.0  0.44979  0.32174  0.52437  1.0000
  C   C161      1.0  0.36610  0.28922  0.55389  1.0000
  H   H54       1.0  0.33254  0.26782  0.55351  1.0000
  H   H55       1.0  0.37235  0.31817  0.52156  1.0000
  H   H56       1.0  0.37664  0.29560  0.62383  1.0000
  C   C162      1.0  0.78858  0.22711  0.37274  1.0000
  C   C163      1.0  0.77052  0.18769  0.41602  1.0000
  C   C164      1.0  0.79240  0.16519  0.42334  1.0000
  C   C165      1.0  0.83305  0.18103  0.38712  1.0000
  N   N71       1.0  0.77318  0.12829  0.46832  1.0000
  C   C166      1.0  0.73477  0.11133  0.50591  1.0000
  C   C167      1.0  0.71335  0.13351  0.49771  1.0000
  N   N72       1.0  0.73199  0.17046  0.45379  1.0000
  H   H57       1.0  0.68442  0.12254  0.52481  1.0000
  C   C168      1.0  0.71689  0.07131  0.55413  1.0000
  H   H58       1.0  0.73826  0.05912  0.55367  1.0000
  H   H59       1.0  0.68791  0.04862  0.52188  1.0000
  H   H60       1.0  0.71056  0.07550  0.62410  1.0000
  C   C169      1.0  0.19168  0.16104  0.43775  1.0000
  C   C170      1.0  0.17040  0.18368  0.43743  1.0000
  H   H61       1.0  0.14413  0.17286  0.47593  1.0000
  H   H62       1.0  0.18000  0.13474  0.47642  1.0000
  C   C171      1.0  0.84494  0.02492  0.43748  1.0000
  C   C172      1.0  0.82230  0.98098  0.43716  1.0000
  H   H63       1.0  0.83316  0.96553  0.47557  1.0000
  H   H64       1.0  0.87128  0.03953  0.47606  1.0000
  C   C173      1.0  0.98108  0.81430  0.43773  1.0000
  C   C174      1.0  0.02501  0.83558  0.43744  1.0000
  H   H65       1.0  0.04046  0.86186  0.47592  1.0000
  H   H66       1.0  0.96646  0.82599  0.47638  1.0000
  C   C175      1.0  0.82013  0.83916  0.43750  1.0000
  C   C176      1.0  0.84142  0.81651  0.43722  1.0000
  H   H67       1.0  0.86772  0.82738  0.47563  1.0000
  H   H68       1.0  0.83185  0.86549  0.47607  1.0000
  C   C177      1.0  0.16690  0.97525  0.43784  1.0000
  C   C178      1.0  0.18954  0.01919  0.43752  1.0000
  H   H69       1.0  0.17869  0.03464  0.47598  1.0000
  H   H70       1.0  0.14057  0.96064  0.47644  1.0000
  C   C179      1.0  0.03071  0.18586  0.43762  1.0000
  C   C180      1.0  0.98678  0.16459  0.43734  1.0000
  H   H71       1.0  0.97132  0.13830  0.47580  1.0000
  H   H72       1.0  0.04532  0.17417  0.47631  1.0000
  C   C181      1.0  0.21441  0.58232  0.35488  1.0000
  C   C182      1.0  0.21323  0.61997  0.35501  1.0000
  H   H73       1.0  0.26092  0.65933  0.65452  1.0000
  H   H74       1.0  0.20711  0.62970  0.41467  1.0000
  H   H75       1.0  0.20886  0.56648  0.41441  1.0000
  C   C183      1.0  0.26457  0.58854  0.62663  1.0000
  H   H76       1.0  0.26530  0.55994  0.63898  1.0000
  H   H77       1.0  0.29386  0.61127  0.59536  1.0000
  H   H78       1.0  0.23919  0.58163  0.58001  1.0000
  C   C184      1.0  0.42368  0.62640  0.35592  1.0000
  C   C185      1.0  0.38605  0.58756  0.35615  1.0000
  H   H79       1.0  0.34675  0.59546  0.65537  1.0000
  H   H80       1.0  0.37630  0.57178  0.41589  1.0000
  H   H81       1.0  0.43949  0.63677  0.41545  1.0000
  C   C186      1.0  0.41745  0.66995  0.62733  1.0000
  H   H82       1.0  0.44604  0.69930  0.63959  1.0000
  H   H83       1.0  0.39471  0.67645  0.59592  1.0000
  H   H84       1.0  0.42438  0.65144  0.58086  1.0000
  C   C187      1.0  0.37949  0.79156  0.35508  1.0000
  C   C188      1.0  0.41832  0.79275  0.35554  1.0000
  H   H85       1.0  0.41067  0.74536  0.65495  1.0000
  H   H86       1.0  0.43405  0.79880  0.41535  1.0000
  H   H87       1.0  0.36907  0.79703  0.41452  1.0000
  C   C189      1.0  0.33621  0.74157  0.62646  1.0000
  H   H88       1.0  0.30685  0.74081  0.63854  1.0000
  H   H89       1.0  0.32974  0.71231  0.59521  1.0000
  H   H90       1.0  0.35475  0.76698  0.57990  1.0000
  C   C190      1.0  0.79739  0.41802  0.35500  1.0000
  C   C191      1.0  0.79851  0.38034  0.35557  1.0000
  H   H91       1.0  0.75119  0.34052  0.65499  1.0000
  H   H92       1.0  0.80462  0.37076  0.41545  1.0000
  H   H93       1.0  0.80288  0.43394  0.41441  1.0000
  C   C192      1.0  0.74742  0.41119  0.62636  1.0000
  H   H94       1.0  0.74666  0.43980  0.63841  1.0000
  H   H95       1.0  0.71815  0.38840  0.59517  1.0000
  H   H96       1.0  0.77282  0.41805  0.57980  1.0000
  C   C193      1.0  0.58822  0.37387  0.35492  1.0000
  C   C194      1.0  0.62591  0.41267  0.35500  1.0000
  H   H97       1.0  0.66513  0.40419  0.65441  1.0000
  H   H98       1.0  0.63557  0.42854  0.41467  1.0000
  H   H99       1.0  0.57239  0.36361  0.41446  1.0000
  C   C195      1.0  0.59430  0.32976  0.62671  1.0000
  H   H100      1.0  0.56570  0.30044  0.63913  1.0000
  H   H101      1.0  0.61702  0.32319  0.59543  1.0000
  H   H102      1.0  0.58737  0.34822  0.58003  1.0000
  C   C196      1.0  0.63223  0.20869  0.35610  1.0000
  C   C197      1.0  0.59343  0.20756  0.35627  1.0000
  H   H103      1.0  0.60134  0.25456  0.65533  1.0000
  H   H104      1.0  0.57767  0.20151  0.41606  1.0000
  H   H105      1.0  0.64260  0.20328  0.41567  1.0000
  C   C198      1.0  0.67582  0.25831  0.62740  1.0000
  H   H106      1.0  0.70518  0.25910  0.63972  1.0000
  H   H107      1.0  0.68231  0.28754  0.59597  1.0000
  H   H108      1.0  0.65733  0.23285  0.58092  1.0000
