data_image0
_chemical_formula_structural       C14H12C7NC12H12C2NC3NC3NC15H14NC2HCNC2HNCHNC2HCNC2HNCHC3NC2NC5NC3NC17H14CNC2NC4NC18H14C2NC19H12CNCHCNHCNC2HCNCHCNHCNC2H
_chemical_formula_sum              "C156 H90 N24"
_cell_length_a       41.656
_cell_length_b       41.656
_cell_length_c       14.9961
_cell_angle_alpha    90.0374
_cell_angle_beta     89.9626
_cell_angle_gamma    120

_space_group_name_H-M_alt    "P 1"
_space_group_IT_number       1

loop_
  _space_group_symop_operation_xyz
  'x, y, z'

loop_
  _atom_site_type_symbol
  _atom_site_label
  _atom_site_symmetry_multiplicity
  _atom_site_fract_x
  _atom_site_fract_y
  _atom_site_fract_z
  _atom_site_occupancy
  C   C1        1.0  0.94969  0.54884  0.33351  1.0000
  C   C2        1.0  0.09967  0.53737  0.33005  1.0000
  C   C3        1.0  0.11182  0.57587  0.33357  1.0000
  C   C4        1.0  0.14863  0.63768  0.34013  1.0000
  C   C5        1.0  0.14859  0.60457  0.33935  1.0000
  C   C6        1.0  0.17003  0.75165  0.25873  1.0000
  C   C7        1.0  0.14014  0.71501  0.25721  1.0000
  C   C8        1.0  0.12753  0.52700  0.32907  1.0000
  C   C9        1.0  0.17910  0.52591  0.25385  1.0000
  C   C10       1.0  0.14917  0.53256  0.25198  1.0000
  C   C11       1.0  0.92158  0.40962  0.25731  1.0000
  C   C12       1.0  0.89183  0.37291  0.25883  1.0000
  C   C13       1.0  0.91239  0.59210  0.25173  1.0000
  C   C14       1.0  0.88231  0.59853  0.25358  1.0000
  H   H1        1.0  0.86608  0.59203  0.19785  1.0000
  H   H2        1.0  0.91741  0.58172  0.19482  1.0000
  H   H3        1.0  0.99590  0.66621  0.31906  1.0000
  H   H4        1.0  0.93352  0.42138  0.19749  1.0000
  H   H5        1.0  0.88304  0.35918  0.19938  1.0000
  H   H6        1.0  0.06561  0.45852  0.31866  1.0000
  H   H7        1.0  0.17197  0.66320  0.34338  1.0000
  H   H8        1.0  0.17190  0.60234  0.34252  1.0000
  H   H9        1.0  0.14426  0.54300  0.19510  1.0000
  H   H10       1.0  0.19533  0.53227  0.19810  1.0000
  H   H11       1.0  0.12823  0.70325  0.19737  1.0000
  H   H12       1.0  0.17900  0.76529  0.19923  1.0000
  C   C15       1.0  0.43854  0.45053  0.32198  1.0000
  C   C16       1.0  0.44526  0.50752  0.32967  1.0000
  C   C17       1.0  0.54360  0.49347  0.33324  1.0000
  C   C18       1.0  0.61492  0.61452  0.32987  1.0000
  C   C19       1.0  0.62164  0.67151  0.32229  1.0000
  C   C20       1.0  0.55508  0.65492  0.32961  1.0000
  C   C21       1.0  0.51657  0.62857  0.33315  1.0000
  N   N1        1.0  0.50011  0.59119  0.33132  1.0000
  C   C22       1.0  0.45476  0.60356  0.33988  1.0000
  C   C23       1.0  0.48787  0.63664  0.33901  1.0000
  C   C24       1.0  0.34079  0.51101  0.25863  1.0000
  C   C25       1.0  0.37740  0.51769  0.25704  1.0000
  C   C26       1.0  0.56545  0.69315  0.32866  1.0000
  C   C27       1.0  0.57929  0.76761  0.33192  1.0000
  C   C28       1.0  0.56659  0.74581  0.25340  1.0000
  C   C29       1.0  0.55988  0.70920  0.25158  1.0000
  C   C30       1.0  0.68284  0.60454  0.25707  1.0000
  C   C31       1.0  0.71955  0.61148  0.25867  1.0000
  C   C32       1.0  0.50036  0.41287  0.25143  1.0000
  C   C33       1.0  0.49393  0.37637  0.25331  1.0000
  H   H13       1.0  0.50042  0.36660  0.19758  1.0000
  H   H14       1.0  0.51075  0.42824  0.19453  1.0000
  H   H15       1.0  0.42625  0.42232  0.31835  1.0000
  H   H16       1.0  0.67112  0.60474  0.19723  1.0000
  H   H17       1.0  0.73332  0.61645  0.19926  1.0000
  H   H18       1.0  0.63394  0.69972  0.31851  1.0000
  H   H19       1.0  0.42924  0.60139  0.34320  1.0000
  H   H20       1.0  0.49011  0.66219  0.34220  1.0000
  H   H21       1.0  0.54945  0.69383  0.19468  1.0000
  H   H22       1.0  0.56016  0.75562  0.19770  1.0000
  H   H23       1.0  0.38916  0.51756  0.19715  1.0000
  H   H24       1.0  0.32710  0.50627  0.19919  1.0000
  C   C34       1.0  0.64193  0.08063  0.32229  1.0000
  C   C35       1.0  0.58493  0.03036  0.32965  1.0000
  N   N2        1.0  0.58258  0.06165  0.33131  1.0000
  C   C36       1.0  0.62534  0.13061  0.32947  1.0000
  C   C37       1.0  0.59898  0.14277  0.33296  1.0000
  C   C38       1.0  0.47794  0.09304  0.32968  1.0000
  N   N3        1.0  0.48028  0.06175  0.33133  1.0000
  C   C39       1.0  0.42093  0.04277  0.32236  1.0000
  C   C40       1.0  0.43752  0.99279  0.32942  1.0000
  C   C41       1.0  0.46387  0.98064  0.33284  1.0000
  N   N4        1.0  0.50125  0.00154  0.33108  1.0000
  C   C42       1.0  0.48888  0.94382  0.33936  1.0000
  C   C43       1.0  0.45580  0.94386  0.33853  1.0000
  C   C44       1.0  0.56640  0.96480  0.33618  1.0000
  C   C45       1.0  0.57943  0.90368  0.33890  1.0000
  C   C46       1.0  0.58145  0.92239  0.25831  1.0000
  C   C47       1.0  0.57475  0.95231  0.25672  1.0000
  C   C48       1.0  0.39929  0.96493  0.32852  1.0000
  C   C49       1.0  0.32484  0.90431  0.33195  1.0000
  C   C50       1.0  0.34662  0.91336  0.25340  1.0000
  C   C51       1.0  0.38320  0.94331  0.25143  1.0000
  C   C52       1.0  0.48791  0.17090  0.25678  1.0000
  C   C53       1.0  0.48091  0.20063  0.25837  1.0000
  C   C54       1.0  0.67962  0.18008  0.25136  1.0000
  C   C55       1.0  0.73784  0.21942  0.33199  1.0000
  C   C56       1.0  0.71612  0.21017  0.25335  1.0000
  H   H25       1.0  0.72594  0.22638  0.19759  1.0000
  H   H26       1.0  0.66428  0.17507  0.19440  1.0000
  H   H27       1.0  0.67014  0.09655  0.31848  1.0000
  H   H28       1.0  0.55967  0.06171  0.33773  1.0000
  H   H29       1.0  0.50320  0.06169  0.33744  1.0000
  H   H30       1.0  0.48770  0.15894  0.19695  1.0000
  H   H31       1.0  0.47600  0.20944  0.19895  1.0000
  H   H32       1.0  0.39272  0.02685  0.31864  1.0000
  H   H33       1.0  0.49105  0.92048  0.34258  1.0000
  H   H34       1.0  0.43025  0.92055  0.34166  1.0000
  H   H35       1.0  0.39856  0.94818  0.19453  1.0000
  H   H36       1.0  0.33677  0.89710  0.19770  1.0000
  H   H37       1.0  0.57493  0.96421  0.19686  1.0000
  H   H38       1.0  0.58623  0.91345  0.19886  1.0000
  N   N5        1.0  0.26603  0.49825  0.26649  1.0000
  C   C57       1.0  0.23316  0.49758  0.26297  1.0000
  C   C58       1.0  0.22072  0.50990  0.33623  1.0000
  H   H39       1.0  0.21797  0.48842  0.20565  1.0000
  C   C59       1.0  0.58246  0.87106  0.33914  1.0000
  N   N6        1.0  0.59421  0.86039  0.26613  1.0000
  C   C60       1.0  0.59487  0.82818  0.26259  1.0000
  C   C61       1.0  0.58253  0.80344  0.33581  1.0000
  H   H40       1.0  0.60403  0.82213  0.20527  1.0000
  N   N7        1.0  0.23204  0.82641  0.26639  1.0000
  C   C62       1.0  0.26424  0.85927  0.26278  1.0000
  H   H41       1.0  0.27026  0.87445  0.20545  1.0000
  N   N8        1.0  0.79458  0.62502  0.26661  1.0000
  C   C63       1.0  0.82764  0.62608  0.26308  1.0000
  C   C64       1.0  0.84020  0.61386  0.33617  1.0000
  H   H42       1.0  0.84286  0.63545  0.20584  1.0000
  C   C65       1.0  0.47947  0.25178  0.33917  1.0000
  N   N9        1.0  0.46741  0.26215  0.26628  1.0000
  C   C66       1.0  0.46634  0.29414  0.26277  1.0000
  C   C67       1.0  0.47852  0.31894  0.33589  1.0000
  H   H43       1.0  0.45698  0.29997  0.20552  1.0000
  N   N10       1.0  0.83035  0.29787  0.26662  1.0000
  C   C68       1.0  0.79836  0.26481  0.26301  1.0000
  H   H44       1.0  0.79255  0.24960  0.20575  1.0000
  C   C69       1.0  0.01182  0.65392  0.32292  1.0000
  C   C70       1.0  0.05007  0.67301  0.32492  1.0000
  C   C71       1.0  0.06209  0.64719  0.33023  1.0000
  N   N11       1.0  0.03080  0.61356  0.33195  1.0000
  C   C72       1.0  0.99960  0.61603  0.32822  1.0000
  C   C73       1.0  0.96184  0.58734  0.32999  1.0000
  N   N12       1.0  0.97060  0.53237  0.33175  1.0000
  C   C74       1.0  0.94966  0.49503  0.33589  1.0000
  C   C75       1.0  0.91288  0.48702  0.34017  1.0000
  C   C76       1.0  0.91292  0.52014  0.33929  1.0000
  C   C77       1.0  0.96176  0.46863  0.33448  1.0000
  C   C78       1.0  0.99942  0.47753  0.33012  1.0000
  N   N13       1.0  0.03071  0.51118  0.33175  1.0000
  C   C79       1.0  0.06191  0.50869  0.32802  1.0000
  C   C80       1.0  0.04969  0.47081  0.32237  1.0000
  C   C81       1.0  0.01144  0.45172  0.32453  1.0000
  N   N14       1.0  0.09091  0.59234  0.33172  1.0000
  C   C82       1.0  0.11185  0.62968  0.33586  1.0000
  C   C83       1.0  0.09975  0.65608  0.33438  1.0000
  C   C84       1.0  0.12765  0.69423  0.33672  1.0000
  C   C85       1.0  0.14516  0.71102  0.41785  1.0000
  C   C86       1.0  0.17535  0.74747  0.41890  1.0000
  C   C87       1.0  0.18877  0.76838  0.33928  1.0000
  C   C88       1.0  0.13564  0.51341  0.40700  1.0000
  C   C89       1.0  0.16537  0.50643  0.40830  1.0000
  C   C90       1.0  0.18815  0.51317  0.33233  1.0000
  C   C91       1.0  0.93387  0.43048  0.33678  1.0000
  C   C92       1.0  0.87309  0.35614  0.33937  1.0000
  C   C93       1.0  0.88629  0.37715  0.41895  1.0000
  C   C94       1.0  0.91631  0.41370  0.41788  1.0000
  C   C95       1.0  0.93396  0.59769  0.32890  1.0000
  C   C96       1.0  0.92566  0.61111  0.40691  1.0000
  C   C97       1.0  0.89576  0.61785  0.40822  1.0000
  C   C98       1.0  0.87302  0.61101  0.33219  1.0000
  H   H45       1.0  0.89035  0.62715  0.46630  1.0000
  H   H46       1.0  0.94065  0.61507  0.46401  1.0000
  H   H47       1.0  0.06611  0.70124  0.32273  1.0000
  H   H48       1.0  0.03075  0.59058  0.33809  1.0000
  H   H49       1.0  0.03077  0.53412  0.33879  1.0000
  H   H50       1.0  0.88960  0.52237  0.34244  1.0000
  H   H51       1.0  0.88954  0.46151  0.34344  1.0000
  H   H52       1.0  0.92446  0.42840  0.47626  1.0000
  H   H53       1.0  0.87373  0.36637  0.47882  1.0000
  H   H54       1.0  0.99541  0.42348  0.32240  1.0000
  H   H55       1.0  0.12056  0.50942  0.46401  1.0000
  H   H56       1.0  0.17058  0.49691  0.46627  1.0000
  H   H57       1.0  0.18793  0.75821  0.47878  1.0000
  H   H58       1.0  0.13693  0.69635  0.47624  1.0000
  C   C99       1.0  0.41945  0.46969  0.32412  1.0000
  N   N15       1.0  0.47890  0.50988  0.33132  1.0000
  C   C100      1.0  0.47642  0.47620  0.32759  1.0000
  C   C101      1.0  0.50510  0.46712  0.32965  1.0000
  N   N16       1.0  0.56007  0.53085  0.33139  1.0000
  C   C102      1.0  0.59741  0.54725  0.33556  1.0000
  C   C103      1.0  0.60542  0.51848  0.33993  1.0000
  C   C104      1.0  0.57230  0.48540  0.33910  1.0000
  C   C105      1.0  0.62382  0.58575  0.33413  1.0000
  N   N17       1.0  0.58128  0.61216  0.33149  1.0000
  C   C106      1.0  0.58376  0.64584  0.32774  1.0000
  C   C107      1.0  0.64074  0.65235  0.32442  1.0000
  C   C108      1.0  0.46277  0.57479  0.33553  1.0000
  C   C109      1.0  0.43636  0.53629  0.33409  1.0000
  C   C110      1.0  0.39821  0.52604  0.33649  1.0000
  C   C111      1.0  0.38146  0.52679  0.41768  1.0000
  C   C112      1.0  0.34501  0.52053  0.41883  1.0000
  C   C113      1.0  0.32406  0.51301  0.33925  1.0000
  C   C114      1.0  0.57902  0.71488  0.40660  1.0000
  C   C115      1.0  0.58600  0.75159  0.40790  1.0000
  C   C116      1.0  0.66197  0.59601  0.33649  1.0000
  C   C117      1.0  0.73629  0.60955  0.33924  1.0000
  C   C118      1.0  0.71526  0.60180  0.41879  1.0000
  C   C119      1.0  0.67872  0.59528  0.41764  1.0000
  C   C120      1.0  0.49475  0.42890  0.32857  1.0000
  C   C121      1.0  0.48133  0.40721  0.40658  1.0000
  C   C122      1.0  0.47457  0.37057  0.40791  1.0000
  C   C123      1.0  0.48141  0.35462  0.33191  1.0000
  H   H59       1.0  0.46522  0.35587  0.46597  1.0000
  H   H60       1.0  0.47732  0.41827  0.46364  1.0000
  H   H61       1.0  0.39122  0.45749  0.32204  1.0000
  H   H62       1.0  0.50185  0.53276  0.33834  1.0000
  H   H63       1.0  0.55831  0.58926  0.33799  1.0000
  H   H64       1.0  0.57007  0.45986  0.34229  1.0000
  H   H65       1.0  0.63093  0.52066  0.34323  1.0000
  H   H66       1.0  0.66399  0.58872  0.47598  1.0000
  H   H67       1.0  0.72602  0.60001  0.47868  1.0000
  H   H68       1.0  0.66897  0.66455  0.32230  1.0000
  H   H69       1.0  0.58301  0.70381  0.46360  1.0000
  H   H70       1.0  0.59551  0.76634  0.46588  1.0000
  H   H71       1.0  0.33428  0.52238  0.47874  1.0000
  H   H72       1.0  0.39615  0.53326  0.47604  1.0000
  C   C124      1.0  0.62277  0.04238  0.32430  1.0000
  C   C125      1.0  0.61626  0.09285  0.32762  1.0000
  N   N18       1.0  0.56160  0.12186  0.33119  1.0000
  C   C126      1.0  0.54520  0.14280  0.33530  1.0000
  C   C127      1.0  0.57398  0.17958  0.33949  1.0000
  C   C128      1.0  0.60705  0.17954  0.33867  1.0000
  C   C129      1.0  0.50671  0.13071  0.33385  1.0000
  C   C130      1.0  0.44660  0.03055  0.32764  1.0000
  C   C131      1.0  0.44009  0.08102  0.32444  1.0000
  C   C132      1.0  0.51765  0.98060  0.33515  1.0000
  C   C133      1.0  0.55615  0.99270  0.33381  1.0000
  C   C134      1.0  0.56563  0.94731  0.41736  1.0000
  C   C135      1.0  0.57189  0.91712  0.41849  1.0000
  C   C136      1.0  0.37760  0.95681  0.40653  1.0000
  C   C137      1.0  0.34088  0.92709  0.40789  1.0000
  C   C138      1.0  0.49644  0.15859  0.33621  1.0000
  C   C139      1.0  0.48287  0.21937  0.33894  1.0000
  C   C140      1.0  0.49066  0.20615  0.41847  1.0000
  C   C141      1.0  0.49719  0.17614  0.41733  1.0000
  C   C142      1.0  0.66356  0.15849  0.32848  1.0000
  C   C143      1.0  0.68521  0.16676  0.40654  1.0000
  C   C144      1.0  0.72184  0.19666  0.40797  1.0000
  H   H73       1.0  0.73652  0.20203  0.46607  1.0000
  H   H74       1.0  0.67411  0.15176  0.46361  1.0000
  H   H75       1.0  0.63496  0.02634  0.32213  1.0000
  H   H76       1.0  0.63260  0.20286  0.34179  1.0000
  H   H77       1.0  0.57180  0.20292  0.34270  1.0000
  H   H78       1.0  0.50375  0.16800  0.47569  1.0000
  H   H79       1.0  0.49246  0.21873  0.47836  1.0000
  H   H80       1.0  0.42790  0.09705  0.32236  1.0000
  H   H81       1.0  0.38870  0.97188  0.46353  1.0000
  H   H82       1.0  0.32617  0.92187  0.46593  1.0000
  H   H83       1.0  0.57004  0.90457  0.47840  1.0000
  H   H84       1.0  0.55915  0.95555  0.47572  1.0000
  C   C145      1.0  0.24411  0.52146  0.41194  1.0000
  N   N19       1.0  0.27664  0.52146  0.41093  1.0000
  C   C146      1.0  0.28842  0.51000  0.33949  1.0000
  H   H85       1.0  0.23807  0.53182  0.46715  1.0000
  C   C147      1.0  0.57098  0.81531  0.41154  1.0000
  N   N20       1.0  0.57098  0.84783  0.41056  1.0000
  H   H86       1.0  0.56060  0.79891  0.46674  1.0000
  C   C148      1.0  0.27719  0.84834  0.41168  1.0000
  N   N21       1.0  0.24467  0.81582  0.41077  1.0000
  C   C149      1.0  0.22141  0.80402  0.33941  1.0000
  C   C150      1.0  0.28901  0.87171  0.33593  1.0000
  H   H87       1.0  0.29361  0.85440  0.46683  1.0000
  C   C151      1.0  0.81674  0.60201  0.41181  1.0000
  N   N22       1.0  0.78402  0.60161  0.41083  1.0000
  C   C152      1.0  0.77211  0.61296  0.33950  1.0000
  H   H88       1.0  0.82289  0.59169  0.46691  1.0000
  C   C153      1.0  0.49040  0.30739  0.41150  1.0000
  N   N23       1.0  0.49081  0.27507  0.41051  1.0000
  H   H89       1.0  0.50071  0.32387  0.46660  1.0000
  C   C154      1.0  0.78504  0.27567  0.41169  1.0000
  N   N24       1.0  0.81736  0.30839  0.41079  1.0000
  C   C155      1.0  0.84069  0.32032  0.33953  1.0000
  C   C156      1.0  0.77351  0.25222  0.33605  1.0000
  H   H90       1.0  0.76853  0.26951  0.46675  1.0000
