data_image0
_chemical_formula_structural       CHC2NHC2H2C4HNH2C4HNH2C2H2C2H2C2H2C2H2C2H2C2H2C24H15C24H15C24H15C24H15C24H15C24H15CHC2H2C2H2C4HNH2C4HNH2C4HNH2C4HNH2C4HNH2C4HNH2
_chemical_formula_sum              "C198 H135 N9"
_cell_length_a       61.6843
_cell_length_b       61.6843
_cell_length_c       14.9859
_cell_angle_alpha    90
_cell_angle_beta     90
_cell_angle_gamma    120

_space_group_name_H-M_alt    "P 1"
_space_group_IT_number       1

loop_
  _space_group_symop_operation_xyz
  'x, y, z'

loop_
  _atom_site_type_symbol
  _atom_site_label
  _atom_site_symmetry_multiplicity
  _atom_site_fract_x
  _atom_site_fract_y
  _atom_site_fract_z
  _atom_site_occupancy
  C   C1        1.0  0.01387  0.51059  0.25040  1.0000
  H   H1        1.0  0.01499  0.51764  0.11661  1.0000
  C   C2        1.0  0.01442  0.50526  0.41203  1.0000
  C   C3        1.0  0.02767  0.51473  0.33112  1.0000
  N   N1        1.0  0.02492  0.52017  0.17017  1.0000
  H   H2        1.0  0.02385  0.50792  0.47096  1.0000
  C   C4        1.0  0.97402  0.48712  0.33468  1.0000
  C   C5        1.0  0.98736  0.49656  0.25382  1.0000
  H   H3        1.0  0.97753  0.49318  0.19552  1.0000
  H   H4        1.0  0.04280  0.53156  0.16487  1.0000
  C   C6        1.0  0.51406  0.48716  0.33468  1.0000
  C   C7        1.0  0.50460  0.49104  0.25384  1.0000
  C   C8        1.0  0.49056  0.50351  0.25045  1.0000
  C   C9        1.0  0.48645  0.51319  0.33117  1.0000
  H   H5        1.0  0.50797  0.48459  0.19553  1.0000
  N   N2        1.0  0.48097  0.50498  0.17025  1.0000
  H   H6        1.0  0.48349  0.49758  0.11668  1.0000
  H   H7        1.0  0.46958  0.51147  0.16497  1.0000
  C   C10       1.0  0.51401  0.02714  0.33463  1.0000
  C   C11       1.0  0.51011  0.01380  0.25379  1.0000
  C   C12       1.0  0.49764  0.98729  0.25039  1.0000
  C   C13       1.0  0.48798  0.97350  0.33112  1.0000
  H   H8        1.0  0.51655  0.02363  0.19547  1.0000
  N   N3        1.0  0.49615  0.97624  0.17017  1.0000
  H   H9        1.0  0.50354  0.98616  0.11659  1.0000
  H   H10       1.0  0.48967  0.95836  0.16488  1.0000
  C   C14       1.0  0.24892  0.52165  0.27532  1.0000
  C   C15       1.0  0.27105  0.52045  0.27264  1.0000
  H   H11       1.0  0.23746  0.51572  0.22051  1.0000
  H   H12       1.0  0.27500  0.51372  0.21620  1.0000
  C   C16       1.0  0.47956  0.72754  0.27520  1.0000
  C   C17       1.0  0.48078  0.75088  0.27260  1.0000
  H   H13       1.0  0.48542  0.72199  0.22027  1.0000
  H   H14       1.0  0.48747  0.76155  0.21613  1.0000
  C   C18       1.0  0.27369  0.75224  0.27532  1.0000
  C   C19       1.0  0.25035  0.73012  0.27266  1.0000
  H   H15       1.0  0.27923  0.76369  0.22048  1.0000
  H   H16       1.0  0.23969  0.72616  0.21618  1.0000
  C   C20       1.0  0.75284  0.47915  0.27524  1.0000
  C   C21       1.0  0.73081  0.48054  0.27275  1.0000
  H   H17       1.0  0.76423  0.48493  0.22025  1.0000
  H   H18       1.0  0.72688  0.48728  0.21630  1.0000
  C   C22       1.0  0.52204  0.27394  0.27532  1.0000
  C   C23       1.0  0.52065  0.25052  0.27282  1.0000
  H   H19       1.0  0.51618  0.27952  0.22046  1.0000
  H   H20       1.0  0.51386  0.23983  0.21643  1.0000
  C   C24       1.0  0.72728  0.24831  0.27526  1.0000
  C   C25       1.0  0.75070  0.27033  0.27274  1.0000
  H   H21       1.0  0.72167  0.23690  0.22029  1.0000
  H   H22       1.0  0.76137  0.27425  0.21630  1.0000
  C   C26       1.0  0.17419  0.60874  0.32912  1.0000
  C   C27       1.0  0.14784  0.59475  0.33437  1.0000
  C   C28       1.0  0.13482  0.56821  0.33748  1.0000
  C   C29       1.0  0.14911  0.55594  0.33641  1.0000
  C   C30       1.0  0.17554  0.56941  0.33070  1.0000
  C   C31       1.0  0.18767  0.59583  0.32811  1.0000
  C   C32       1.0  0.10800  0.55428  0.33860  1.0000
  C   C33       1.0  0.09401  0.56222  0.39035  1.0000
  C   C34       1.0  0.06768  0.54922  0.38821  1.0000
  C   C35       1.0  0.05435  0.52774  0.33418  1.0000
  C   C36       1.0  0.06814  0.51925  0.28447  1.0000
  C   C37       1.0  0.09448  0.53243  0.28604  1.0000
  C   C38       1.0  0.18750  0.63532  0.32521  1.0000
  C   C39       1.0  0.18723  0.64971  0.39811  1.0000
  C   C40       1.0  0.20444  0.67561  0.40220  1.0000
  C   C41       1.0  0.22200  0.68786  0.33289  1.0000
  C   C42       1.0  0.22120  0.67355  0.25780  1.0000
  C   C43       1.0  0.20430  0.64767  0.25421  1.0000
  C   C44       1.0  0.19011  0.55728  0.32799  1.0000
  C   C45       1.0  0.21025  0.56546  0.26704  1.0000
  C   C46       1.0  0.22710  0.55646  0.27192  1.0000
  C   C47       1.0  0.22419  0.53871  0.33732  1.0000
  C   C48       1.0  0.20323  0.52925  0.39473  1.0000
  C   C49       1.0  0.18643  0.53845  0.39019  1.0000
  H   H23       1.0  0.20488  0.68523  0.45846  1.0000
  H   H24       1.0  0.17597  0.64116  0.45206  1.0000
  H   H25       1.0  0.23424  0.68140  0.20804  1.0000
  H   H26       1.0  0.20537  0.63767  0.20154  1.0000
  H   H27       1.0  0.21349  0.57889  0.22047  1.0000
  H   H28       1.0  0.24225  0.56398  0.23002  1.0000
  H   H29       1.0  0.17245  0.53246  0.43672  1.0000
  H   H30       1.0  0.20087  0.51664  0.44352  1.0000
  H   H31       1.0  0.10368  0.52617  0.24618  1.0000
  H   H32       1.0  0.05909  0.50359  0.24542  1.0000
  H   H33       1.0  0.05830  0.55581  0.42551  1.0000
  H   H34       1.0  0.10289  0.57763  0.43062  1.0000
  H   H35       1.0  0.13806  0.60413  0.33244  1.0000
  H   H36       1.0  0.20685  0.60599  0.32713  1.0000
  H   H37       1.0  0.14014  0.53681  0.33894  1.0000
  C   C50       1.0  0.39243  0.56569  0.32911  1.0000
  C   C51       1.0  0.40642  0.55334  0.33441  1.0000
  C   C52       1.0  0.43297  0.56687  0.33752  1.0000
  C   C53       1.0  0.44523  0.59342  0.33642  1.0000
  C   C54       1.0  0.43176  0.60637  0.33066  1.0000
  C   C55       1.0  0.40534  0.59209  0.32804  1.0000
  C   C56       1.0  0.44690  0.55398  0.33868  1.0000
  C   C57       1.0  0.43896  0.53205  0.39045  1.0000
  C   C58       1.0  0.45197  0.51873  0.38833  1.0000
  C   C59       1.0  0.47344  0.52687  0.33426  1.0000
  C   C60       1.0  0.48192  0.54914  0.28452  1.0000
  C   C61       1.0  0.46874  0.56230  0.28608  1.0000
  C   C62       1.0  0.36586  0.55242  0.32518  1.0000
  C   C63       1.0  0.35146  0.53777  0.39810  1.0000
  C   C64       1.0  0.32556  0.52908  0.40217  1.0000
  C   C65       1.0  0.31332  0.53439  0.33283  1.0000
  C   C66       1.0  0.32762  0.54786  0.25768  1.0000
  C   C67       1.0  0.35350  0.55685  0.25414  1.0000
  C   C68       1.0  0.44388  0.63308  0.32789  1.0000
  C   C69       1.0  0.43573  0.64503  0.26681  1.0000
  C   C70       1.0  0.44469  0.67086  0.27176  1.0000
  C   C71       1.0  0.46244  0.68573  0.33718  1.0000
  C   C72       1.0  0.47191  0.67424  0.39461  1.0000
  C   C73       1.0  0.46268  0.64823  0.39020  1.0000
  H   H38       1.0  0.31594  0.51994  0.45848  1.0000
  H   H39       1.0  0.36001  0.53508  0.45210  1.0000
  H   H40       1.0  0.31976  0.55306  0.20796  1.0000
  H   H41       1.0  0.36350  0.56792  0.20145  1.0000
  H   H42       1.0  0.42229  0.63483  0.22028  1.0000
  H   H43       1.0  0.43720  0.67850  0.22978  1.0000
  H   H44       1.0  0.46867  0.64025  0.43673  1.0000
  H   H45       1.0  0.48449  0.68447  0.44350  1.0000
  H   H46       1.0  0.47499  0.57775  0.24620  1.0000
  H   H47       1.0  0.49757  0.55574  0.24543  1.0000
  H   H48       1.0  0.44537  0.50275  0.42561  1.0000
  H   H49       1.0  0.42356  0.52552  0.43072  1.0000
  H   H50       1.0  0.39704  0.53418  0.33251  1.0000
  H   H51       1.0  0.39517  0.60110  0.32701  1.0000
  H   H52       1.0  0.46436  0.60359  0.33896  1.0000
  C   C74       1.0  0.43550  0.82698  0.32927  1.0000
  C   C75       1.0  0.44786  0.85332  0.33456  1.0000
  C   C76       1.0  0.43433  0.86634  0.33760  1.0000
  C   C77       1.0  0.40778  0.85205  0.33653  1.0000
  C   C78       1.0  0.39482  0.82562  0.33083  1.0000
  C   C79       1.0  0.40910  0.81349  0.32822  1.0000
  C   C80       1.0  0.44722  0.89316  0.33869  1.0000
  C   C81       1.0  0.46915  0.90716  0.39041  1.0000
  C   C82       1.0  0.48247  0.93349  0.38826  1.0000
  C   C83       1.0  0.47431  0.94681  0.33421  1.0000
  C   C84       1.0  0.45203  0.93301  0.28454  1.0000
  C   C85       1.0  0.43889  0.90668  0.28608  1.0000
  C   C86       1.0  0.44877  0.81367  0.32534  1.0000
  C   C87       1.0  0.46346  0.81397  0.39819  1.0000
  C   C88       1.0  0.47214  0.79675  0.40225  1.0000
  C   C89       1.0  0.46686  0.77921  0.33289  1.0000
  C   C90       1.0  0.45333  0.78000  0.25786  1.0000
  C   C91       1.0  0.44434  0.79689  0.25428  1.0000
  C   C92       1.0  0.36812  0.81105  0.32809  1.0000
  C   C93       1.0  0.35616  0.79092  0.26709  1.0000
  C   C94       1.0  0.33032  0.77407  0.27198  1.0000
  C   C95       1.0  0.31546  0.77696  0.33740  1.0000
  C   C96       1.0  0.32696  0.79794  0.39478  1.0000
  C   C97       1.0  0.35297  0.81471  0.39035  1.0000
  H   H53       1.0  0.48135  0.79633  0.45844  1.0000
  H   H54       1.0  0.46616  0.82522  0.45216  1.0000
  H   H55       1.0  0.44812  0.76694  0.20817  1.0000
  H   H56       1.0  0.43322  0.79577  0.20172  1.0000
  H   H57       1.0  0.36636  0.78766  0.22062  1.0000
  H   H58       1.0  0.32269  0.75889  0.23019  1.0000
  H   H59       1.0  0.36095  0.82872  0.43673  1.0000
  H   H60       1.0  0.31671  0.80031  0.44355  1.0000
  H   H61       1.0  0.42342  0.89747  0.24630  1.0000
  H   H62       1.0  0.44542  0.94206  0.24547  1.0000
  H   H63       1.0  0.49845  0.94288  0.42551  1.0000
  H   H64       1.0  0.47569  0.89829  0.43069  1.0000
  H   H65       1.0  0.46702  0.86310  0.33256  1.0000
  H   H66       1.0  0.40009  0.79431  0.32725  1.0000
  H   H67       1.0  0.39761  0.86102  0.33904  1.0000
  C   C98       1.0  0.82722  0.39160  0.32950  1.0000
  C   C99       1.0  0.85357  0.40560  0.33485  1.0000
  C   C100      1.0  0.86656  0.43214  0.33742  1.0000
  C   C101      1.0  0.85227  0.44440  0.33614  1.0000
  C   C102      1.0  0.82584  0.43092  0.33064  1.0000
  C   C103      1.0  0.81372  0.40450  0.32825  1.0000
  C   C104      1.0  0.89336  0.44613  0.33842  1.0000
  C   C105      1.0  0.90745  0.43863  0.39156  1.0000
  C   C106      1.0  0.93379  0.45205  0.39058  1.0000
  C   C107      1.0  0.94720  0.47356  0.33646  1.0000
  C   C108      1.0  0.93310  0.48116  0.28387  1.0000
  C   C109      1.0  0.90677  0.46770  0.28461  1.0000
  C   C110      1.0  0.81391  0.36503  0.32563  1.0000
  C   C111      1.0  0.81399  0.35062  0.39880  1.0000
  C   C112      1.0  0.79672  0.32474  0.40277  1.0000
  C   C113      1.0  0.77924  0.31252  0.33319  1.0000
  C   C114      1.0  0.78024  0.32684  0.25784  1.0000
  C   C115      1.0  0.79721  0.35271  0.25434  1.0000
  C   C116      1.0  0.81128  0.44306  0.32796  1.0000
  C   C117      1.0  0.79108  0.43485  0.26727  1.0000
  C   C118      1.0  0.77430  0.44394  0.27212  1.0000
  C   C119      1.0  0.77734  0.46181  0.33721  1.0000
  C   C120      1.0  0.79834  0.47127  0.39446  1.0000
  C   C121      1.0  0.81506  0.46197  0.38996  1.0000
  H   H68       1.0  0.79617  0.31510  0.45910  1.0000
  H   H69       1.0  0.82523  0.35914  0.45281  1.0000
  H   H70       1.0  0.76720  0.31906  0.20806  1.0000
  H   H71       1.0  0.79621  0.36273  0.20160  1.0000
  H   H72       1.0  0.78777  0.42136  0.22084  1.0000
  H   H73       1.0  0.75913  0.43645  0.23030  1.0000
  H   H74       1.0  0.82911  0.46802  0.43622  1.0000
  H   H75       1.0  0.80082  0.48398  0.44298  1.0000
  H   H76       1.0  0.89748  0.47365  0.24377  1.0000
  H   H77       1.0  0.94187  0.49681  0.24468  1.0000
  H   H78       1.0  0.94310  0.44557  0.42880  1.0000
  H   H79       1.0  0.89863  0.42332  0.43232  1.0000
  H   H80       1.0  0.86338  0.39624  0.33316  1.0000
  H   H81       1.0  0.79454  0.39433  0.32733  1.0000
  H   H82       1.0  0.86124  0.46354  0.33836  1.0000
  C   C122      1.0  0.60955  0.43584  0.32952  1.0000
  C   C123      1.0  0.59557  0.44821  0.33488  1.0000
  C   C124      1.0  0.56902  0.43466  0.33740  1.0000
  C   C125      1.0  0.55675  0.40811  0.33614  1.0000
  C   C126      1.0  0.57022  0.39515  0.33066  1.0000
  C   C127      1.0  0.59663  0.40943  0.32828  1.0000
  C   C128      1.0  0.55505  0.44749  0.33838  1.0000
  C   C129      1.0  0.56256  0.46908  0.39150  1.0000
  C   C130      1.0  0.54914  0.48201  0.39050  1.0000
  C   C131      1.0  0.52762  0.47390  0.33644  1.0000
  C   C132      1.0  0.52001  0.45219  0.28386  1.0000
  C   C133      1.0  0.53346  0.43931  0.28461  1.0000
  C   C134      1.0  0.63612  0.44908  0.32565  1.0000
  C   C135      1.0  0.65053  0.46357  0.39881  1.0000
  C   C136      1.0  0.67642  0.47217  0.40279  1.0000
  C   C137      1.0  0.68862  0.46688  0.33324  1.0000
  C   C138      1.0  0.67429  0.45352  0.25800  1.0000
  C   C139      1.0  0.64843  0.44468  0.25437  1.0000
  C   C140      1.0  0.55806  0.36844  0.32797  1.0000
  C   C141      1.0  0.56626  0.35645  0.26725  1.0000
  C   C142      1.0  0.55718  0.33059  0.27216  1.0000
  C   C143      1.0  0.53931  0.31576  0.33728  1.0000
  C   C144      1.0  0.52983  0.32730  0.39442  1.0000
  C   C145      1.0  0.53916  0.35332  0.39000  1.0000
  H   H83       1.0  0.68607  0.48129  0.45908  1.0000
  H   H84       1.0  0.64202  0.46631  0.45280  1.0000
  H   H85       1.0  0.68209  0.44832  0.20808  1.0000
  H   H86       1.0  0.63841  0.43367  0.20162  1.0000
  H   H87       1.0  0.57975  0.36662  0.22085  1.0000
  H   H88       1.0  0.56468  0.32290  0.23038  1.0000
  H   H89       1.0  0.53313  0.36133  0.43626  1.0000
  H   H90       1.0  0.51716  0.31708  0.44310  1.0000
  H   H91       1.0  0.52752  0.42409  0.24376  1.0000
  H   H92       1.0  0.50436  0.44531  0.24470  1.0000
  H   H93       1.0  0.55562  0.49779  0.42876  1.0000
  H   H94       1.0  0.57787  0.47557  0.43225  1.0000
  H   H95       1.0  0.60493  0.46737  0.33313  1.0000
  H   H96       1.0  0.60680  0.40042  0.32735  1.0000
  H   H97       1.0  0.53761  0.39795  0.33834  1.0000
  C   C146      1.0  0.56536  0.17396  0.32954  1.0000
  C   C147      1.0  0.55299  0.14761  0.33491  1.0000
  C   C148      1.0  0.56653  0.13461  0.33741  1.0000
  C   C149      1.0  0.59308  0.14888  0.33610  1.0000
  C   C150      1.0  0.60605  0.17531  0.33060  1.0000
  C   C151      1.0  0.59176  0.18744  0.32825  1.0000
  C   C152      1.0  0.55370  0.10780  0.33838  1.0000
  C   C153      1.0  0.53212  0.09373  0.39155  1.0000
  C   C154      1.0  0.51918  0.06738  0.39053  1.0000
  C   C155      1.0  0.52728  0.05396  0.33640  1.0000
  C   C156      1.0  0.54897  0.06806  0.28377  1.0000
  C   C157      1.0  0.56186  0.09439  0.28455  1.0000
  C   C158      1.0  0.55212  0.18729  0.32570  1.0000
  C   C159      1.0  0.53766  0.18724  0.39891  1.0000
  C   C160      1.0  0.52906  0.20452  0.40288  1.0000
  C   C161      1.0  0.53430  0.22198  0.33327  1.0000
  C   C162      1.0  0.54766  0.22100  0.25800  1.0000
  C   C163      1.0  0.55653  0.20402  0.25445  1.0000
  C   C164      1.0  0.63275  0.18985  0.32788  1.0000
  C   C165      1.0  0.64475  0.21004  0.26715  1.0000
  C   C166      1.0  0.67061  0.22681  0.27198  1.0000
  C   C167      1.0  0.68543  0.22380  0.33720  1.0000
  C   C168      1.0  0.67389  0.20281  0.39448  1.0000
  C   C169      1.0  0.64787  0.18609  0.38997  1.0000
  H   H98       1.0  0.51997  0.20507  0.45922  1.0000
  H   H99       1.0  0.53494  0.17600  0.45293  1.0000
  H   H100      1.0  0.55283  0.23397  0.20802  1.0000
  H   H101      1.0  0.56747  0.20494  0.20155  1.0000
  H   H102      1.0  0.63457  0.21335  0.22073  1.0000
  H   H103      1.0  0.67828  0.24199  0.23022  1.0000
  H   H104      1.0  0.63986  0.17205  0.43624  1.0000
  H   H105      1.0  0.68412  0.20034  0.44306  1.0000
  H   H106      1.0  0.57708  0.10367  0.24366  1.0000
  H   H107      1.0  0.55584  0.05928  0.24458  1.0000
  H   H108      1.0  0.50340  0.05808  0.42882  1.0000
  H   H109      1.0  0.52563  0.10254  0.43233  1.0000
  H   H110      1.0  0.53383  0.13781  0.33320  1.0000
  H   H111      1.0  0.60078  0.20662  0.32731  1.0000
  H   H112      1.0  0.60324  0.13989  0.33828  1.0000
  C   C170      1.0  0.98815  0.49182  0.41381  1.0000
  H   H113      1.0  0.97942  0.48578  0.47421  1.0000
  C   C171      1.0  0.49594  0.50944  0.41206  1.0000
  C   C172      1.0  0.50937  0.49659  0.41382  1.0000
  H   H114      1.0  0.49329  0.51620  0.47099  1.0000
  H   H115      1.0  0.51543  0.49392  0.47420  1.0000
  C   C173      1.0  0.49176  0.98675  0.41203  1.0000
  C   C174      1.0  0.50460  0.01302  0.41378  1.0000
  H   H116      1.0  0.48501  0.97733  0.47097  1.0000
  H   H117      1.0  0.50729  0.02175  0.47417  1.0000
  C   C175      1.0  0.28851  0.53018  0.34322  1.0000
  C   C176      1.0  0.28245  0.53995  0.41849  1.0000
  C   C177      1.0  0.26049  0.54187  0.42197  1.0000
  C   C178      1.0  0.24358  0.53278  0.34830  1.0000
  H   H118      1.0  0.29540  0.54799  0.46851  1.0000
  N   N4        1.0  0.25753  0.55384  0.49332  1.0000
  H   H119      1.0  0.26966  0.56026  0.54178  1.0000
  H   H120      1.0  0.24357  0.55683  0.49807  1.0000
  C   C179      1.0  0.47106  0.75860  0.34322  1.0000
  C   C180      1.0  0.46133  0.74279  0.41858  1.0000
  C   C181      1.0  0.45934  0.71888  0.42187  1.0000
  C   C182      1.0  0.46836  0.71104  0.34806  1.0000
  H   H121      1.0  0.45326  0.74768  0.46853  1.0000
  N   N5        1.0  0.44733  0.70393  0.49316  1.0000
  H   H122      1.0  0.44095  0.70966  0.54169  1.0000
  H   H123      1.0  0.44426  0.68695  0.49775  1.0000
  C   C183      1.0  0.24259  0.71267  0.34329  1.0000
  C   C184      1.0  0.25842  0.71874  0.41857  1.0000
  C   C185      1.0  0.28230  0.74069  0.42207  1.0000
  C   C186      1.0  0.29015  0.75759  0.34835  1.0000
  H   H124      1.0  0.25349  0.70580  0.46863  1.0000
  N   N6        1.0  0.29722  0.74366  0.49347  1.0000
  H   H125      1.0  0.29149  0.73153  0.54196  1.0000
  H   H126      1.0  0.31417  0.75761  0.49823  1.0000
  C   C187      1.0  0.71338  0.47094  0.34345  1.0000
  C   C188      1.0  0.71940  0.46114  0.41876  1.0000
  C   C189      1.0  0.74122  0.45898  0.42198  1.0000
  C   C190      1.0  0.75806  0.46789  0.34809  1.0000
  H   H127      1.0  0.70644  0.45313  0.46877  1.0000
  N   N7        1.0  0.74410  0.44693  0.49328  1.0000
  H   H128      1.0  0.73201  0.44063  0.54190  1.0000
  H   H129      1.0  0.75795  0.44377  0.49786  1.0000
  C   C191      1.0  0.53028  0.24271  0.34349  1.0000
  C   C192      1.0  0.54012  0.25855  0.41870  1.0000
  C   C193      1.0  0.54221  0.28250  0.42204  1.0000
  C   C194      1.0  0.53324  0.29041  0.34825  1.0000
  H   H130      1.0  0.54808  0.25358  0.46881  1.0000
  N   N8        1.0  0.55422  0.29742  0.49339  1.0000
  H   H131      1.0  0.56055  0.29165  0.54195  1.0000
  H   H132      1.0  0.55730  0.31440  0.49807  1.0000
  C   C195      1.0  0.75852  0.28777  0.34340  1.0000
  C   C196      1.0  0.74270  0.28177  0.41869  1.0000
  C   C197      1.0  0.71872  0.25995  0.42193  1.0000
  C   C198      1.0  0.71078  0.24308  0.34810  1.0000
  H   H133      1.0  0.74765  0.29473  0.46867  1.0000
  N   N9        1.0  0.70379  0.25708  0.49320  1.0000
  H   H134      1.0  0.70958  0.26918  0.54178  1.0000
  H   H135      1.0  0.68678  0.24322  0.49779  1.0000
