data_image0
_chemical_formula_structural       C4H2C3H2NC2H4C11H2C8H4C8H4N12HC6H3C6H3C6H3C6H3C6H3N5C5H2C8H4C5H2C8H4C8H4C8H4
_chemical_formula_sum              "C108 H54 N18"
_cell_length_a       30.4729
_cell_length_b       30.4728
_cell_length_c       14.7859
_cell_angle_alpha    90
_cell_angle_beta     90
_cell_angle_gamma    120

_space_group_name_H-M_alt    "P 1"
_space_group_IT_number       1

loop_
  _space_group_symop_operation_xyz
  'x, y, z'

loop_
  _atom_site_type_symbol
  _atom_site_label
  _atom_site_symmetry_multiplicity
  _atom_site_fract_x
  _atom_site_fract_y
  _atom_site_fract_z
  _atom_site_occupancy
  C   C1        1.0  0.03801  0.52102  0.28044  1.0000
  C   C2        1.0  0.06415  0.53382  0.36464  1.0000
  C   C3        1.0  0.06402  0.53426  0.19643  1.0000
  C   C4        1.0  0.03742  0.52120  0.11419  1.0000
  H   H1        1.0  0.10273  0.55361  0.19372  1.0000
  H   H2        1.0  0.05675  0.53103  0.05423  1.0000
  C   C5        1.0  0.14528  0.61460  0.36823  1.0000
  C   C6        1.0  0.11808  0.56079  0.37232  1.0000
  C   C7        1.0  0.14524  0.53413  0.36854  1.0000
  H   H3        1.0  0.12579  0.63391  0.36779  1.0000
  H   H4        1.0  0.12572  0.49533  0.36807  1.0000
  N   N1        1.0  0.03572  0.51932  0.44129  1.0000
  C   C8        1.0  0.19843  0.55991  0.35582  1.0000
  C   C9        1.0  0.19848  0.64196  0.35572  1.0000
  H   H5        1.0  0.17508  0.49447  0.50294  1.0000
  H   H6        1.0  0.19809  0.46104  0.62856  1.0000
  H   H7        1.0  0.19793  0.74084  0.62761  1.0000
  H   H8        1.0  0.17506  0.68418  0.50238  1.0000
  C   C10       1.0  0.22328  0.61333  0.34830  1.0000
  C   C11       1.0  0.22917  0.53699  0.34963  1.0000
  C   C12       1.0  0.20846  0.49436  0.49944  1.0000
  C   C13       1.0  0.22165  0.47467  0.57376  1.0000
  C   C14       1.0  0.22937  0.69559  0.34921  1.0000
  C   C15       1.0  0.22149  0.75071  0.57283  1.0000
  C   C16       1.0  0.20839  0.71769  0.49874  1.0000
  C   C17       1.0  0.95759  0.48051  0.36466  1.0000
  C   C18       1.0  0.98373  0.49386  0.28045  1.0000
  C   C19       1.0  0.98430  0.49464  0.11420  1.0000
  C   C20       1.0  0.95771  0.48109  0.19645  1.0000
  H   H9        1.0  0.96496  0.48513  0.05425  1.0000
  H   H10       1.0  0.91900  0.46172  0.19374  1.0000
  C   C21       1.0  0.53753  0.48054  0.36437  1.0000
  C   C22       1.0  0.52458  0.49378  0.28021  1.0000
  C   C23       1.0  0.49747  0.52095  0.28029  1.0000
  C   C24       1.0  0.48431  0.53388  0.36453  1.0000
  C   C25       1.0  0.48457  0.53410  0.19631  1.0000
  C   C26       1.0  0.49795  0.52092  0.11403  1.0000
  C   C27       1.0  0.52448  0.49434  0.11395  1.0000
  C   C28       1.0  0.53768  0.48089  0.19616  1.0000
  H   H11       1.0  0.46522  0.55346  0.19367  1.0000
  H   H12       1.0  0.48835  0.53068  0.05410  1.0000
  H   H13       1.0  0.53420  0.48475  0.05397  1.0000
  H   H14       1.0  0.55701  0.46152  0.19339  1.0000
  C   C29       1.0  0.53757  0.06047  0.36445  1.0000
  C   C30       1.0  0.52426  0.03433  0.28025  1.0000
  C   C31       1.0  0.49712  0.98004  0.28025  1.0000
  C   C32       1.0  0.48429  0.95390  0.36445  1.0000
  C   C33       1.0  0.48389  0.95403  0.19624  1.0000
  C   C34       1.0  0.49697  0.98062  0.11399  1.0000
  C   C35       1.0  0.52353  0.03374  0.11399  1.0000
  C   C36       1.0  0.53704  0.06033  0.19623  1.0000
  H   H15       1.0  0.46455  0.91532  0.19354  1.0000
  H   H16       1.0  0.48716  0.96129  0.05404  1.0000
  H   H17       1.0  0.53305  0.05307  0.05404  1.0000
  H   H18       1.0  0.55641  0.09904  0.19352  1.0000
  N   N2        1.0  0.26419  0.55619  0.28249  1.0000
  N   N3        1.0  0.30673  0.55625  0.28253  1.0000
  N   N4        1.0  0.46195  0.71142  0.28222  1.0000
  N   N5        1.0  0.46190  0.75392  0.28211  1.0000
  N   N6        1.0  0.30669  0.75387  0.28176  1.0000
  N   N7        1.0  0.26417  0.71136  0.28179  1.0000
  N   N8        1.0  0.75768  0.45817  0.28216  1.0000
  N   N9        1.0  0.71503  0.45790  0.28209  1.0000
  N   N10       1.0  0.55948  0.30275  0.28175  1.0000
  N   N11       1.0  0.55952  0.26025  0.28185  1.0000
  N   N12       1.0  0.71498  0.26064  0.28245  1.0000
  N   N13       1.0  0.75752  0.30313  0.28249  1.0000
  H   H19       1.0  0.26211  0.63273  0.34379  1.0000
  C   C37       1.0  0.45819  0.64205  0.35581  1.0000
  C   C38       1.0  0.40475  0.61347  0.34853  1.0000
  C   C39       1.0  0.37616  0.56004  0.35598  1.0000
  C   C40       1.0  0.40353  0.53422  0.36856  1.0000
  C   C41       1.0  0.45735  0.56084  0.37229  1.0000
  C   C42       1.0  0.48399  0.61466  0.36837  1.0000
  H   H20       1.0  0.38424  0.49543  0.36801  1.0000
  H   H21       1.0  0.52279  0.63394  0.36771  1.0000
  H   H22       1.0  0.38534  0.63289  0.34408  1.0000
  C   C43       1.0  0.37615  0.81960  0.35554  1.0000
  C   C44       1.0  0.40476  0.79480  0.34790  1.0000
  C   C45       1.0  0.45819  0.81963  0.35553  1.0000
  C   C46       1.0  0.48397  0.87282  0.36830  1.0000
  C   C47       1.0  0.45731  0.89997  0.37213  1.0000
  C   C48       1.0  0.40350  0.87279  0.36826  1.0000
  H   H23       1.0  0.52277  0.89234  0.36779  1.0000
  H   H24       1.0  0.38420  0.89229  0.36767  1.0000
  H   H25       1.0  0.38537  0.75597  0.34346  1.0000
  C   C49       1.0  0.82334  0.45450  0.35587  1.0000
  C   C50       1.0  0.79845  0.40107  0.34864  1.0000
  C   C51       1.0  0.82324  0.37243  0.35612  1.0000
  C   C52       1.0  0.87645  0.39979  0.36860  1.0000
  C   C53       1.0  0.90367  0.45361  0.37236  1.0000
  C   C54       1.0  0.87654  0.48029  0.36834  1.0000
  H   H26       1.0  0.89591  0.38045  0.36814  1.0000
  H   H27       1.0  0.89606  0.51908  0.36774  1.0000
  H   H28       1.0  0.75962  0.38168  0.34439  1.0000
  C   C55       1.0  0.56340  0.37223  0.35518  1.0000
  C   C56       1.0  0.61684  0.40074  0.34772  1.0000
  C   C57       1.0  0.64552  0.45415  0.35556  1.0000
  C   C58       1.0  0.61823  0.48005  0.36823  1.0000
  C   C59       1.0  0.56442  0.45350  0.37197  1.0000
  C   C60       1.0  0.53768  0.39969  0.36789  1.0000
  H   H29       1.0  0.63760  0.51885  0.36792  1.0000
  H   H30       1.0  0.49888  0.38045  0.36746  1.0000
  H   H31       1.0  0.63618  0.38126  0.34329  1.0000
  C   C61       1.0  0.64558  0.19486  0.35580  1.0000
  C   C62       1.0  0.61691  0.21961  0.34813  1.0000
  C   C63       1.0  0.56347  0.19469  0.35546  1.0000
  C   C64       1.0  0.53773  0.14149  0.36796  1.0000
  C   C65       1.0  0.56444  0.11440  0.37212  1.0000
  C   C66       1.0  0.61825  0.14166  0.36839  1.0000
  H   H32       1.0  0.49893  0.12193  0.36759  1.0000
  H   H33       1.0  0.63762  0.12222  0.36805  1.0000
  H   H34       1.0  0.63626  0.25844  0.34373  1.0000
  N   N14       1.0  0.98603  0.49446  0.44130  1.0000
  N   N15       1.0  0.49838  0.51949  0.44114  1.0000
  N   N16       1.0  0.52320  0.49461  0.44106  1.0000
  N   N17       1.0  0.49875  0.98234  0.44110  1.0000
  N   N18       1.0  0.52358  0.03203  0.44109  1.0000
  C   C67       1.0  0.32248  0.53706  0.34977  1.0000
  C   C68       1.0  0.28773  0.51346  0.42262  1.0000
  C   C69       1.0  0.24037  0.51344  0.42255  1.0000
  C   C70       1.0  0.26765  0.47474  0.57386  1.0000
  C   C71       1.0  0.30057  0.49446  0.49961  1.0000
  H   H35       1.0  0.27756  0.46113  0.62871  1.0000
  H   H36       1.0  0.33409  0.49464  0.50321  1.0000
  C   C72       1.0  0.48107  0.78884  0.34937  1.0000
  C   C73       1.0  0.50476  0.77784  0.42229  1.0000
  C   C74       1.0  0.50476  0.73049  0.42233  1.0000
  C   C75       1.0  0.48118  0.69572  0.34949  1.0000
  C   C76       1.0  0.52386  0.71771  0.49924  1.0000
  C   C77       1.0  0.54363  0.75066  0.57344  1.0000
  C   C78       1.0  0.54359  0.79662  0.57342  1.0000
  C   C79       1.0  0.52382  0.80976  0.49917  1.0000
  H   H37       1.0  0.52373  0.68422  0.50282  1.0000
  H   H38       1.0  0.55726  0.74077  0.62828  1.0000
  H   H39       1.0  0.55722  0.82017  0.62823  1.0000
  H   H40       1.0  0.52364  0.84310  0.50271  1.0000
  C   C80       1.0  0.24033  0.73043  0.42190  1.0000
  C   C81       1.0  0.28769  0.77779  0.42186  1.0000
  C   C82       1.0  0.32251  0.78870  0.34914  1.0000
  C   C83       1.0  0.30046  0.80975  0.49868  1.0000
  C   C84       1.0  0.26746  0.79668  0.57279  1.0000
  H   H41       1.0  0.33398  0.84307  0.50227  1.0000
  H   H42       1.0  0.27736  0.82026  0.62755  1.0000
  C   C85       1.0  0.69917  0.47687  0.34946  1.0000
  C   C86       1.0  0.73390  0.50081  0.42224  1.0000
  C   C87       1.0  0.78134  0.50099  0.42221  1.0000
  C   C88       1.0  0.79265  0.47746  0.34938  1.0000
  C   C89       1.0  0.81329  0.52024  0.49903  1.0000
  C   C90       1.0  0.80005  0.53994  0.57325  1.0000
  C   C91       1.0  0.75397  0.53972  0.57333  1.0000
  C   C92       1.0  0.72100  0.51981  0.49916  1.0000
  H   H43       1.0  0.84673  0.52027  0.50250  1.0000
  H   H44       1.0  0.82363  0.55372  0.62799  1.0000
  H   H45       1.0  0.74401  0.55332  0.62813  1.0000
  H   H46       1.0  0.68741  0.51946  0.50283  1.0000
  C   C93       1.0  0.54045  0.22532  0.34914  1.0000
  C   C94       1.0  0.51700  0.23658  0.42214  1.0000
  C   C95       1.0  0.51698  0.28392  0.42212  1.0000
  C   C96       1.0  0.54034  0.31855  0.34902  1.0000
  C   C97       1.0  0.49808  0.29684  0.49914  1.0000
  C   C98       1.0  0.47854  0.26404  0.57358  1.0000
  C   C99       1.0  0.47858  0.21809  0.57364  1.0000
  C   C100      1.0  0.49813  0.20481  0.49924  1.0000
  H   H47       1.0  0.49819  0.33033  0.50263  1.0000
  H   H48       1.0  0.46502  0.27401  0.62848  1.0000
  H   H49       1.0  0.46508  0.19461  0.62856  1.0000
  H   H50       1.0  0.49830  0.17146  0.50281  1.0000
  C   C101      1.0  0.79242  0.31877  0.34979  1.0000
  C   C102      1.0  0.78137  0.28398  0.42256  1.0000
  C   C103      1.0  0.73399  0.23666  0.42252  1.0000
  C   C104      1.0  0.69925  0.22571  0.34970  1.0000
  C   C105      1.0  0.72118  0.20469  0.49931  1.0000
  C   C106      1.0  0.75416  0.21776  0.57345  1.0000
  C   C107      1.0  0.80015  0.26371  0.57350  1.0000
  C   C108      1.0  0.81331  0.29672  0.49939  1.0000
  H   H51       1.0  0.68765  0.17137  0.50288  1.0000
  H   H52       1.0  0.74425  0.19417  0.62821  1.0000
  H   H53       1.0  0.82372  0.27354  0.62827  1.0000
  H   H54       1.0  0.84667  0.33020  0.50297  1.0000
