data_image0
_chemical_formula_structural       C6H4C6H4C6H4CNCNCNC18H12CNCNCNC18H12C2H2C4H2C2H2C4H2C2H2C4H2
_chemical_formula_sum              "C78 H48 N6"
_cell_length_a       37.091
_cell_length_b       37.0912
_cell_length_c       14.9742
_cell_angle_alpha    90
_cell_angle_beta     90
_cell_angle_gamma    120

_space_group_name_H-M_alt    "P 1"
_space_group_IT_number       1

loop_
  _space_group_symop_operation_xyz
  'x, y, z'

loop_
  _atom_site_type_symbol
  _atom_site_label
  _atom_site_symmetry_multiplicity
  _atom_site_fract_x
  _atom_site_fract_y
  _atom_site_fract_z
  _atom_site_occupancy
  C   C1        1.0  0.44483  0.55732  0.33486  1.0000
  C   C2        1.0  0.45603  0.54612  0.25417  1.0000
  C   C3        1.0  0.47794  0.52421  0.25467  1.0000
  C   C4        1.0  0.48990  0.51225  0.33501  1.0000
  C   C5        1.0  0.52467  0.47748  0.25484  1.0000
  C   C6        1.0  0.54658  0.45557  0.25449  1.0000
  H   H1        1.0  0.51788  0.48427  0.19352  1.0000
  H   H2        1.0  0.55433  0.44783  0.19469  1.0000
  H   H3        1.0  0.44830  0.55384  0.19432  1.0000
  H   H4        1.0  0.48475  0.51739  0.19340  1.0000
  C   C7        1.0  0.44483  0.88795  0.33486  1.0000
  C   C8        1.0  0.45603  0.91034  0.25417  1.0000
  C   C9        1.0  0.47794  0.95416  0.25467  1.0000
  C   C10       1.0  0.48990  0.97807  0.33501  1.0000
  C   C11       1.0  0.52467  0.04762  0.25484  1.0000
  C   C12       1.0  0.54658  0.09144  0.25449  1.0000
  H   H5        1.0  0.51787  0.03404  0.19352  1.0000
  H   H6        1.0  0.55432  0.10693  0.19469  1.0000
  H   H7        1.0  0.44831  0.89489  0.19432  1.0000
  H   H8        1.0  0.48476  0.96779  0.19340  1.0000
  C   C13       1.0  0.11421  0.55732  0.33486  1.0000
  C   C14       1.0  0.09181  0.54612  0.25417  1.0000
  C   C15       1.0  0.04799  0.52421  0.25467  1.0000
  C   C16       1.0  0.02408  0.51225  0.33501  1.0000
  C   C17       1.0  0.95453  0.47748  0.25484  1.0000
  C   C18       1.0  0.91071  0.45557  0.25449  1.0000
  H   H9        1.0  0.96811  0.48427  0.19352  1.0000
  H   H10       1.0  0.89522  0.44782  0.19468  1.0000
  H   H11       1.0  0.10726  0.55385  0.19432  1.0000
  H   H12       1.0  0.03436  0.51740  0.19340  1.0000
  C   C19       1.0  0.35612  0.71052  0.33509  1.0000
  N   N1        1.0  0.37630  0.68836  0.33509  1.0000
  C   C20       1.0  0.35612  0.64603  0.33509  1.0000
  N   N2        1.0  0.31379  0.62585  0.33509  1.0000
  C   C21       1.0  0.29163  0.64603  0.33509  1.0000
  N   N3        1.0  0.31379  0.68836  0.33509  1.0000
  C   C22       1.0  0.37834  0.62381  0.33503  1.0000
  C   C23       1.0  0.42250  0.64505  0.33499  1.0000
  C   C24       1.0  0.44447  0.62321  0.33489  1.0000
  C   C25       1.0  0.42285  0.57931  0.33482  1.0000
  C   C26       1.0  0.37894  0.55768  0.33489  1.0000
  C   C27       1.0  0.35710  0.57965  0.33499  1.0000
  C   C28       1.0  0.37834  0.75496  0.33503  1.0000
  C   C29       1.0  0.42250  0.77787  0.33499  1.0000
  C   C30       1.0  0.44447  0.82169  0.33489  1.0000
  C   C31       1.0  0.42284  0.84397  0.33482  1.0000
  C   C32       1.0  0.37895  0.82169  0.33489  1.0000
  C   C33       1.0  0.35710  0.77787  0.33499  1.0000
  C   C34       1.0  0.24719  0.62381  0.33503  1.0000
  C   C35       1.0  0.22428  0.64505  0.33499  1.0000
  C   C36       1.0  0.18046  0.62321  0.33489  1.0000
  C   C37       1.0  0.15818  0.57931  0.33482  1.0000
  C   C38       1.0  0.18046  0.55768  0.33489  1.0000
  C   C39       1.0  0.22427  0.57965  0.33499  1.0000
  H   H13       1.0  0.47635  0.83718  0.33489  1.0000
  H   H14       1.0  0.43940  0.76295  0.33503  1.0000
  H   H15       1.0  0.36256  0.83718  0.33489  1.0000
  H   H16       1.0  0.32527  0.76295  0.33504  1.0000
  H   H17       1.0  0.23920  0.67688  0.33503  1.0000
  H   H18       1.0  0.16497  0.63959  0.33489  1.0000
  H   H19       1.0  0.23920  0.56275  0.33504  1.0000
  H   H20       1.0  0.16496  0.52580  0.33489  1.0000
  H   H21       1.0  0.32527  0.56275  0.33503  1.0000
  H   H22       1.0  0.36256  0.52580  0.33489  1.0000
  H   H23       1.0  0.47635  0.63959  0.33489  1.0000
  H   H24       1.0  0.43940  0.67688  0.33503  1.0000
  C   C40       1.0  0.64646  0.29120  0.33502  1.0000
  N   N4        1.0  0.62628  0.31336  0.33503  1.0000
  C   C41       1.0  0.64646  0.35569  0.33502  1.0000
  N   N5        1.0  0.68879  0.37587  0.33503  1.0000
  C   C42       1.0  0.71095  0.35569  0.33502  1.0000
  N   N6        1.0  0.68879  0.31336  0.33503  1.0000
  C   C43       1.0  0.62424  0.37791  0.33508  1.0000
  C   C44       1.0  0.58008  0.35667  0.33512  1.0000
  C   C45       1.0  0.55811  0.37851  0.33522  1.0000
  C   C46       1.0  0.57974  0.42241  0.33529  1.0000
  C   C47       1.0  0.62364  0.44404  0.33522  1.0000
  C   C48       1.0  0.64548  0.42207  0.33512  1.0000
  C   C49       1.0  0.62424  0.24676  0.33508  1.0000
  C   C50       1.0  0.58008  0.22384  0.33512  1.0000
  C   C51       1.0  0.55811  0.18002  0.33522  1.0000
  C   C52       1.0  0.57974  0.15775  0.33529  1.0000
  C   C53       1.0  0.62364  0.18002  0.33522  1.0000
  C   C54       1.0  0.64548  0.22384  0.33512  1.0000
  C   C55       1.0  0.75539  0.37791  0.33508  1.0000
  C   C56       1.0  0.77830  0.35667  0.33512  1.0000
  C   C57       1.0  0.82213  0.37851  0.33522  1.0000
  C   C58       1.0  0.84440  0.42241  0.33529  1.0000
  C   C59       1.0  0.82213  0.44404  0.33522  1.0000
  C   C60       1.0  0.77831  0.42207  0.33512  1.0000
  H   H25       1.0  0.52624  0.16453  0.33522  1.0000
  H   H26       1.0  0.56317  0.23877  0.33507  1.0000
  H   H27       1.0  0.64002  0.16453  0.33522  1.0000
  H   H28       1.0  0.67731  0.23877  0.33507  1.0000
  H   H29       1.0  0.76338  0.32484  0.33507  1.0000
  H   H30       1.0  0.83762  0.36213  0.33522  1.0000
  H   H31       1.0  0.76338  0.43897  0.33507  1.0000
  H   H32       1.0  0.83761  0.47591  0.33522  1.0000
  H   H33       1.0  0.67731  0.43897  0.33507  1.0000
  H   H34       1.0  0.64002  0.47591  0.33522  1.0000
  H   H35       1.0  0.52624  0.36213  0.33522  1.0000
  H   H36       1.0  0.56318  0.32484  0.33507  1.0000
  C   C61       1.0  0.47792  0.52424  0.41527  1.0000
  C   C62       1.0  0.45600  0.54615  0.41563  1.0000
  H   H37       1.0  0.48471  0.51745  0.47658  1.0000
  H   H38       1.0  0.44826  0.55390  0.47543  1.0000
  C   C63       1.0  0.51268  0.48947  0.33510  1.0000
  C   C64       1.0  0.55775  0.44440  0.33525  1.0000
  C   C65       1.0  0.54655  0.45560  0.41594  1.0000
  C   C66       1.0  0.52464  0.47751  0.41544  1.0000
  H   H39       1.0  0.55428  0.44787  0.47580  1.0000
  H   H40       1.0  0.51782  0.48432  0.47670  1.0000
  C   C67       1.0  0.47791  0.95410  0.41527  1.0000
  C   C68       1.0  0.45600  0.91028  0.41563  1.0000
  H   H41       1.0  0.48470  0.96768  0.47658  1.0000
  H   H42       1.0  0.44825  0.89479  0.47543  1.0000
  C   C69       1.0  0.51268  0.02365  0.33510  1.0000
  C   C70       1.0  0.55775  0.11377  0.33525  1.0000
  C   C71       1.0  0.54655  0.09138  0.41594  1.0000
  C   C72       1.0  0.52464  0.04756  0.41544  1.0000
  H   H43       1.0  0.55428  0.10683  0.47580  1.0000
  H   H44       1.0  0.51783  0.03393  0.47670  1.0000
  C   C73       1.0  0.04805  0.52424  0.41527  1.0000
  C   C74       1.0  0.09187  0.54615  0.41563  1.0000
  H   H45       1.0  0.03447  0.51744  0.47658  1.0000
  H   H46       1.0  0.10736  0.55389  0.47543  1.0000
  C   C75       1.0  0.97851  0.48947  0.33510  1.0000
  C   C76       1.0  0.88838  0.44440  0.33525  1.0000
  C   C77       1.0  0.91077  0.45560  0.41594  1.0000
  C   C78       1.0  0.95459  0.47751  0.41544  1.0000
  H   H47       1.0  0.89532  0.44788  0.47580  1.0000
  H   H48       1.0  0.96822  0.48432  0.47670  1.0000
