data_image0
_chemical_formula_structural       NC2HCH2NC2HCH2NC2HCH2CNCNCNC18H12NHNHNHCNCNCNC18H12NHNHNHCNC2OHCH2CNC2OHCH2CNC2OHCH2
_chemical_formula_sum              "N18 C63 H48 O3"
_cell_length_a       36.3951
_cell_length_b       36.3958
_cell_length_c       15.0511
_cell_angle_alpha    90
_cell_angle_beta     90
_cell_angle_gamma    120

_space_group_name_H-M_alt    "P 1"
_space_group_IT_number       1

loop_
  _space_group_symop_operation_xyz
  'x, y, z'

loop_
  _atom_site_type_symbol
  _atom_site_label
  _atom_site_symmetry_multiplicity
  _atom_site_fract_x
  _atom_site_fract_y
  _atom_site_fract_z
  _atom_site_occupancy
  N   N1        1.0  0.51095  0.48224  0.27236  1.0000
  C   C1        1.0  0.47992  0.49080  0.25072  1.0000
  C   C2        1.0  0.46334  0.50536  0.31757  1.0000
  H   H1        1.0  0.46942  0.48704  0.18660  1.0000
  C   C3        1.0  0.43067  0.51699  0.29747  1.0000
  H   H2        1.0  0.44382  0.54185  0.24669  1.0000
  H   H3        1.0  0.40257  0.48947  0.26989  1.0000
  N   N2        1.0  0.51348  0.02784  0.27239  1.0000
  C   C4        1.0  0.50492  0.98825  0.25075  1.0000
  C   C5        1.0  0.49037  0.95711  0.31760  1.0000
  H   H4        1.0  0.50868  0.98151  0.18662  1.0000
  C   C6        1.0  0.47874  0.91281  0.29749  1.0000
  H   H5        1.0  0.45389  0.90110  0.24671  1.0000
  H   H6        1.0  0.50626  0.91223  0.26993  1.0000
  N   N3        1.0  0.96791  0.48483  0.27241  1.0000
  C   C7        1.0  0.00750  0.51587  0.25076  1.0000
  C   C8        1.0  0.03865  0.53247  0.31761  1.0000
  H   H7        1.0  0.01424  0.52638  0.18664  1.0000
  C   C9        1.0  0.08294  0.56515  0.29748  1.0000
  H   H8        1.0  0.09465  0.55200  0.24669  1.0000
  H   H9        1.0  0.08352  0.59325  0.26991  1.0000
  C   C10       1.0  0.28741  0.64747  0.32588  1.0000
  N   N4        1.0  0.30556  0.62268  0.32657  1.0000
  C   C11       1.0  0.34828  0.63907  0.32594  1.0000
  N   N5        1.0  0.37306  0.68202  0.32661  1.0000
  C   C12       1.0  0.35668  0.70834  0.32591  1.0000
  N   N6        1.0  0.31373  0.69018  0.32657  1.0000
  C   C13       1.0  0.36612  0.61229  0.33382  1.0000
  C   C14       1.0  0.34201  0.56836  0.31422  1.0000
  C   C15       1.0  0.35904  0.54154  0.32702  1.0000
  C   C16       1.0  0.40045  0.55801  0.36106  1.0000
  C   C17       1.0  0.42475  0.60157  0.38049  1.0000
  C   C18       1.0  0.40798  0.62845  0.36623  1.0000
  C   C19       1.0  0.24279  0.62965  0.33375  1.0000
  C   C20       1.0  0.21707  0.58780  0.36619  1.0000
  C   C21       1.0  0.17343  0.57104  0.38048  1.0000
  C   C22       1.0  0.15419  0.59536  0.36104  1.0000
  C   C23       1.0  0.17913  0.63676  0.32697  1.0000
  C   C24       1.0  0.22298  0.65377  0.31415  1.0000
  C   C25       1.0  0.38346  0.75296  0.33384  1.0000
  C   C26       1.0  0.36730  0.77866  0.36627  1.0000
  C   C27       1.0  0.39417  0.82231  0.38048  1.0000
  C   C28       1.0  0.43773  0.84157  0.36108  1.0000
  C   C29       1.0  0.45421  0.81663  0.32706  1.0000
  C   C30       1.0  0.42739  0.77279  0.31427  1.0000
  H   H10       1.0  0.15573  0.54101  0.40545  1.0000
  H   H11       1.0  0.23000  0.56941  0.38282  1.0000
  H   H12       1.0  0.16558  0.65484  0.31295  1.0000
  H   H13       1.0  0.24027  0.68410  0.29045  1.0000
  H   H14       1.0  0.33597  0.76573  0.38273  1.0000
  H   H15       1.0  0.38181  0.84001  0.40536  1.0000
  H   H16       1.0  0.44045  0.75551  0.29060  1.0000
  H   H17       1.0  0.48585  0.83020  0.31311  1.0000
  H   H18       1.0  0.42636  0.65976  0.38282  1.0000
  H   H19       1.0  0.45480  0.61392  0.40541  1.0000
  H   H20       1.0  0.34097  0.50990  0.31301  1.0000
  H   H21       1.0  0.31168  0.55531  0.29054  1.0000
  N   N7        1.0  0.41881  0.53258  0.37749  1.0000
  H   H22       1.0  0.39952  0.50782  0.41866  1.0000
  N   N8        1.0  0.46316  0.88537  0.37751  1.0000
  H   H23       1.0  0.48792  0.89084  0.41870  1.0000
  N   N9        1.0  0.11039  0.57701  0.37749  1.0000
  H   H24       1.0  0.10494  0.59632  0.41865  1.0000
  C   C31       1.0  0.70751  0.34930  0.32265  1.0000
  N   N10       1.0  0.68919  0.37394  0.32218  1.0000
  C   C32       1.0  0.64645  0.35733  0.32269  1.0000
  N   N11       1.0  0.62181  0.31436  0.32220  1.0000
  C   C33       1.0  0.63843  0.28824  0.32268  1.0000
  N   N12       1.0  0.68139  0.30656  0.32218  1.0000
  C   C34       1.0  0.62832  0.38391  0.31694  1.0000
  C   C35       1.0  0.65187  0.42742  0.34036  1.0000
  C   C36       1.0  0.63420  0.45391  0.33178  1.0000
  C   C37       1.0  0.59274  0.43754  0.29811  1.0000
  C   C38       1.0  0.56913  0.39446  0.27423  1.0000
  C   C39       1.0  0.58652  0.36787  0.28435  1.0000
  C   C40       1.0  0.75222  0.36743  0.31693  1.0000
  C   C41       1.0  0.77798  0.40922  0.28431  1.0000
  C   C42       1.0  0.82197  0.42663  0.27425  1.0000
  C   C43       1.0  0.84144  0.40301  0.29816  1.0000
  C   C44       1.0  0.81634  0.36156  0.33184  1.0000
  C   C45       1.0  0.77219  0.34389  0.34039  1.0000
  C   C46       1.0  0.61183  0.24354  0.31695  1.0000
  C   C47       1.0  0.62786  0.21776  0.28435  1.0000
  C   C48       1.0  0.60126  0.17378  0.27423  1.0000
  C   C49       1.0  0.55818  0.15432  0.29814  1.0000
  C   C50       1.0  0.54183  0.17943  0.33185  1.0000
  C   C51       1.0  0.56832  0.22358  0.34043  1.0000
  H   H25       1.0  0.83979  0.45672  0.24965  1.0000
  H   H26       1.0  0.76495  0.42721  0.26520  1.0000
  H   H27       1.0  0.83008  0.34401  0.34921  1.0000
  H   H28       1.0  0.75485  0.31366  0.36457  1.0000
  H   H29       1.0  0.65887  0.23079  0.26517  1.0000
  H   H30       1.0  0.61352  0.15596  0.24960  1.0000
  H   H31       1.0  0.55543  0.24092  0.36459  1.0000
  H   H32       1.0  0.51054  0.16569  0.34922  1.0000
  H   H33       1.0  0.56853  0.33685  0.26524  1.0000
  H   H34       1.0  0.53903  0.38218  0.24966  1.0000
  H   H35       1.0  0.65175  0.48520  0.34912  1.0000
  H   H36       1.0  0.68211  0.44033  0.36451  1.0000
  N   N13       1.0  0.57351  0.46256  0.28703  1.0000
  H   H37       1.0  0.59242  0.48856  0.24838  1.0000
  N   N14       1.0  0.53315  0.11008  0.28706  1.0000
  H   H38       1.0  0.50714  0.10299  0.24843  1.0000
  N   N15       1.0  0.88568  0.42224  0.28710  1.0000
  H   H39       1.0  0.89278  0.40333  0.24846  1.0000
  C   C52       1.0  0.52746  0.48668  0.35552  1.0000
  N   N16       1.0  0.47973  0.50976  0.40061  1.0000
  C   C53       1.0  0.51055  0.50080  0.42409  1.0000
  C   C54       1.0  0.52421  0.50728  0.51172  1.0000
  O   O1        1.0  0.50301  0.51165  0.56936  1.0000
  H   H40       1.0  0.54090  0.49429  0.53295  1.0000
  C   C55       1.0  0.56100  0.47544  0.37022  1.0000
  H   H41       1.0  0.54844  0.44919  0.41780  1.0000
  H   H42       1.0  0.58892  0.50251  0.39955  1.0000
  C   C56       1.0  0.50904  0.03991  0.35555  1.0000
  N   N17       1.0  0.48596  0.96910  0.40064  1.0000
  C   C57       1.0  0.49492  0.00887  0.42412  1.0000
  C   C58       1.0  0.48844  0.01605  0.51174  1.0000
  O   O2        1.0  0.48408  0.99049  0.56939  1.0000
  H   H43       1.0  0.50143  0.04574  0.53298  1.0000
  C   C59       1.0  0.52028  0.08470  0.37025  1.0000
  H   H44       1.0  0.54653  0.09838  0.41782  1.0000
  H   H45       1.0  0.49320  0.08553  0.39959  1.0000
  C   C60       1.0  0.95585  0.46833  0.35558  1.0000
  N   N18       1.0  0.02666  0.51608  0.40065  1.0000
  C   C61       1.0  0.98690  0.48525  0.42414  1.0000
  C   C62       1.0  0.97972  0.47159  0.51176  1.0000
  O   O3        1.0  0.00529  0.49280  0.56940  1.0000
  H   H46       1.0  0.95003  0.45489  0.53301  1.0000
  C   C63       1.0  0.91107  0.43477  0.37028  1.0000
  H   H47       1.0  0.89737  0.44733  0.41786  1.0000
  H   H48       1.0  0.91025  0.40687  0.39963  1.0000
