data_image0
_chemical_formula_structural       C4HCH3C2H2C2H2C2H2C4HCH3C4HCH3C4HCH3C4HCH3C2H2C2H2C4HCH3C4HCH3C2H2C2H2C4HCH3C4HCH3C2H2C2H2C4HCH3C4HCH3C2H2C2H2C2H2C4HCH3CNCNCNCNCNCNCNCNCNCNCNCNCNCNCNCNCNCNCNCNCNCNCNCNCNCNCNCNCNCNCNCNCNCNCNCNCNCNCNCNCNCNCNCNCNCNCNCNC2H2C4HCH3C4HCH3C4HCH3C2H2C2H2C2H2C2H2C4HCH3C4HCH3C2H2C2H2C4HCH3C4HCH3C2H2C2H2C4HCH3C4HCH3C2H2C2H2C4HCH3C4HCH3C4HCH3C2H2
_chemical_formula_sum              "C216 H144 N48"
_cell_length_a       54.34
_cell_length_b       28.0165
_cell_length_c       14.875
_cell_angle_alpha    90
_cell_angle_beta     90
_cell_angle_gamma    90

_space_group_name_H-M_alt    "P 1"
_space_group_IT_number       1

loop_
  _space_group_symop_operation_xyz
  'x, y, z'

loop_
  _atom_site_type_symbol
  _atom_site_label
  _atom_site_symmetry_multiplicity
  _atom_site_fract_x
  _atom_site_fract_y
  _atom_site_fract_z
  _atom_site_occupancy
  C   C1        1.0  0.51490  0.55049  0.35202  1.0000
  C   C2        1.0  0.48985  0.54486  0.32692  1.0000
  C   C3        1.0  0.47746  0.50029  0.32816  1.0000
  C   C4        1.0  0.49049  0.45864  0.35631  1.0000
  H   H1        1.0  0.48026  0.57413  0.30543  1.0000
  C   C5        1.0  0.45145  0.49887  0.29631  1.0000
  H   H2        1.0  0.44487  0.53331  0.27172  1.0000
  H   H3        1.0  0.43939  0.48828  0.35143  1.0000
  H   H4        1.0  0.44966  0.47342  0.24115  1.0000
  C   C6        1.0  0.99268  0.96354  0.30539  1.0000
  C   C7        1.0  0.98082  0.00820  0.30682  1.0000
  H   H5        1.0  0.98242  0.93482  0.28532  1.0000
  H   H6        1.0  0.96272  0.00996  0.28810  1.0000
  C   C8        1.0  0.40325  0.37464  0.32824  1.0000
  C   C9        1.0  0.37799  0.36275  0.32517  1.0000
  H   H7        1.0  0.40860  0.40643  0.30057  1.0000
  H   H8        1.0  0.36605  0.38630  0.29578  1.0000
  C   C10       1.0  0.60505  0.62874  0.32564  1.0000
  C   C11       1.0  0.63034  0.64055  0.32294  1.0000
  H   H9        1.0  0.59945  0.59824  0.29373  1.0000
  H   H10       1.0  0.64211  0.61821  0.28957  1.0000
  C   C12       1.0  0.13909  0.81803  0.32630  1.0000
  C   C13       1.0  0.12136  0.78723  0.28756  1.0000
  C   C14       1.0  0.09591  0.79842  0.28370  1.0000
  C   C15       1.0  0.08724  0.84228  0.32156  1.0000
  H   H11       1.0  0.12715  0.75539  0.26126  1.0000
  C   C16       1.0  0.07939  0.76374  0.23720  1.0000
  H   H12       1.0  0.08947  0.73665  0.19933  1.0000
  H   H13       1.0  0.06757  0.78244  0.18945  1.0000
  H   H14       1.0  0.06802  0.74508  0.28633  1.0000
  C   C17       1.0  0.86941  0.18383  0.32469  1.0000
  C   C18       1.0  0.88681  0.21298  0.28005  1.0000
  C   C19       1.0  0.91219  0.20139  0.27485  1.0000
  C   C20       1.0  0.92113  0.15906  0.31781  1.0000
  H   H15       1.0  0.88083  0.24388  0.25047  1.0000
  C   C21       1.0  0.92836  0.23409  0.22206  1.0000
  H   H16       1.0  0.91797  0.25878  0.17974  1.0000
  H   H17       1.0  0.94030  0.21349  0.17759  1.0000
  H   H18       1.0  0.93962  0.25550  0.26741  1.0000
  C   C22       1.0  0.53682  0.20939  0.31215  1.0000
  C   C23       1.0  0.51725  0.21524  0.25014  1.0000
  C   C24       1.0  0.50110  0.25475  0.25313  1.0000
  C   C25       1.0  0.50494  0.29033  0.32003  1.0000
  H   H19       1.0  0.51386  0.18867  0.20444  1.0000
  C   C26       1.0  0.48068  0.25744  0.18638  1.0000
  H   H20       1.0  0.48215  0.23030  0.13394  1.0000
  H   H21       1.0  0.48080  0.29222  0.15334  1.0000
  H   H22       1.0  0.46303  0.25233  0.21995  1.0000
  C   C27       1.0  0.47407  0.80128  0.30691  1.0000
  C   C28       1.0  0.49469  0.79597  0.24936  1.0000
  C   C29       1.0  0.51055  0.75604  0.25371  1.0000
  C   C30       1.0  0.50534  0.71947  0.31736  1.0000
  H   H23       1.0  0.49896  0.82305  0.20577  1.0000
  C   C31       1.0  0.53200  0.75388  0.19134  1.0000
  H   H24       1.0  0.53164  0.78205  0.14059  1.0000
  H   H25       1.0  0.53212  0.71976  0.15593  1.0000
  H   H26       1.0  0.54910  0.75771  0.22905  1.0000
  C   C32       1.0  0.98262  0.78572  0.31112  1.0000
  C   C33       1.0  0.96715  0.74538  0.31362  1.0000
  H   H27       1.0  0.97945  0.81093  0.26263  1.0000
  H   H28       1.0  0.95354  0.74227  0.26642  1.0000
  C   C34       1.0  0.02487  0.22242  0.31091  1.0000
  C   C35       1.0  0.04014  0.26299  0.31461  1.0000
  H   H29       1.0  0.02889  0.19659  0.26446  1.0000
  H   H30       1.0  0.05441  0.26584  0.26997  1.0000
  C   C36       1.0  0.30483  0.08631  0.36378  1.0000
  C   C37       1.0  0.29119  0.11248  0.29973  1.0000
  C   C38       1.0  0.29440  0.16257  0.28798  1.0000
  C   C39       1.0  0.31059  0.18844  0.34618  1.0000
  H   H31       1.0  0.28036  0.09400  0.25532  1.0000
  C   C40       1.0  0.28229  0.18406  0.20799  1.0000
  H   H32       1.0  0.28534  0.16180  0.14873  1.0000
  H   H33       1.0  0.28948  0.21921  0.19158  1.0000
  H   H34       1.0  0.26251  0.18672  0.21981  1.0000
  C   C41       1.0  0.70315  0.91701  0.36750  1.0000
  C   C42       1.0  0.71691  0.89087  0.30372  1.0000
  C   C43       1.0  0.71374  0.84078  0.29160  1.0000
  C   C44       1.0  0.69741  0.81474  0.34903  1.0000
  H   H35       1.0  0.72796  0.90937  0.26008  1.0000
  C   C45       1.0  0.72603  0.81949  0.21177  1.0000
  H   H36       1.0  0.72323  0.84203  0.15270  1.0000
  H   H37       1.0  0.71876  0.78452  0.19453  1.0000
  H   H38       1.0  0.74576  0.81655  0.22435  1.0000
  C   C46       1.0  0.18492  0.66201  0.26900  1.0000
  C   C47       1.0  0.18747  0.61225  0.26117  1.0000
  H   H39       1.0  0.17294  0.67877  0.22619  1.0000
  H   H40       1.0  0.17700  0.59488  0.21421  1.0000
  C   C48       1.0  0.82421  0.34091  0.26851  1.0000
  C   C49       1.0  0.82171  0.39069  0.26010  1.0000
  H   H41       1.0  0.83621  0.32400  0.22600  1.0000
  H   H42       1.0  0.83224  0.40785  0.21302  1.0000
  C   C50       1.0  0.24110  0.42403  0.32721  1.0000
  C   C51       1.0  0.23758  0.37665  0.29661  1.0000
  C   C52       1.0  0.25648  0.34178  0.29525  1.0000
  C   C53       1.0  0.28059  0.35370  0.32722  1.0000
  H   H43       1.0  0.22060  0.36718  0.27281  1.0000
  C   C54       1.0  0.24998  0.29449  0.25598  1.0000
  H   H44       1.0  0.23145  0.29308  0.22761  1.0000
  H   H45       1.0  0.25089  0.26692  0.30758  1.0000
  H   H46       1.0  0.26267  0.28634  0.20146  1.0000
  C   C55       1.0  0.76738  0.57910  0.32529  1.0000
  C   C56       1.0  0.77087  0.62684  0.29654  1.0000
  C   C57       1.0  0.75199  0.66177  0.29660  1.0000
  C   C58       1.0  0.72787  0.64953  0.32791  1.0000
  H   H47       1.0  0.78784  0.63662  0.27309  1.0000
  C   C59       1.0  0.75854  0.70951  0.25944  1.0000
  H   H48       1.0  0.77715  0.71134  0.23181  1.0000
  H   H49       1.0  0.75745  0.73650  0.31208  1.0000
  H   H50       1.0  0.74598  0.71818  0.20479  1.0000
  C   C60       1.0  0.22423  0.90176  0.32615  1.0000
  C   C61       1.0  0.24333  0.93606  0.32655  1.0000
  H   H51       1.0  0.20734  0.91259  0.30355  1.0000
  H   H52       1.0  0.23955  0.96994  0.30488  1.0000
  C   C62       1.0  0.78434  0.10138  0.32732  1.0000
  C   C63       1.0  0.76525  0.06705  0.32877  1.0000
  H   H53       1.0  0.80102  0.09078  0.30245  1.0000
  H   H54       1.0  0.76882  0.03340  0.30540  1.0000
  C   C64       1.0  0.15330  0.44636  0.30958  1.0000
  C   C65       1.0  0.13491  0.46839  0.25695  1.0000
  C   C66       1.0  0.11030  0.45186  0.25612  1.0000
  C   C67       1.0  0.10355  0.41260  0.31246  1.0000
  H   H55       1.0  0.13951  0.49756  0.21893  1.0000
  C   C68       1.0  0.09253  0.47647  0.19529  1.0000
  H   H56       1.0  0.10173  0.49739  0.14320  1.0000
  H   H57       1.0  0.08095  0.50078  0.23386  1.0000
  H   H58       1.0  0.08094  0.45032  0.16115  1.0000
  C   C69       1.0  0.85497  0.55847  0.30202  1.0000
  C   C70       1.0  0.87354  0.53688  0.24959  1.0000
  C   C71       1.0  0.89769  0.55565  0.24513  1.0000
  C   C72       1.0  0.90405  0.59598  0.29931  1.0000
  H   H59       1.0  0.86934  0.50692  0.21313  1.0000
  C   C73       1.0  0.91530  0.53123  0.18362  1.0000
  H   H60       1.0  0.90615  0.51985  0.12183  1.0000
  H   H61       1.0  0.92287  0.49978  0.21692  1.0000
  H   H62       1.0  0.93034  0.55470  0.16352  1.0000
  C   C74       1.0  0.38616  0.88848  0.32139  1.0000
  C   C75       1.0  0.36167  0.90492  0.32327  1.0000
  H   H63       1.0  0.39035  0.86062  0.27955  1.0000
  H   H64       1.0  0.34892  0.88822  0.28359  1.0000
  C   C76       1.0  0.62386  0.11945  0.33123  1.0000
  C   C77       1.0  0.64797  0.10109  0.33131  1.0000
  H   H65       1.0  0.61999  0.14751  0.28942  1.0000
  H   H66       1.0  0.66083  0.11692  0.29082  1.0000
  C   C78       1.0  0.00237  0.46690  0.29975  1.0000
  C   C79       1.0  0.98459  0.50305  0.29850  1.0000
  H   H67       1.0  0.00135  0.44045  0.25229  1.0000
  H   H68       1.0  0.97135  0.50224  0.24956  1.0000
  C   C80       1.0  0.52306  0.04241  0.31488  1.0000
  C   C81       1.0  0.49952  0.04986  0.27643  1.0000
  C   C82       1.0  0.48131  0.01378  0.27458  1.0000
  C   C83       1.0  0.48693  0.96844  0.31285  1.0000
  H   H69       1.0  0.49540  0.08254  0.24958  1.0000
  C   C84       1.0  0.45732  0.02427  0.23021  1.0000
  H   H70       1.0  0.45718  0.05874  0.19588  1.0000
  H   H71       1.0  0.44264  0.02492  0.28014  1.0000
  H   H72       1.0  0.45327  0.99694  0.18005  1.0000
  C   C85       1.0  0.44683  0.35497  0.35738  1.0000
  N   N1        1.0  0.45578  0.40054  0.36175  1.0000
  C   C86       1.0  0.48032  0.41123  0.35428  1.0000
  N   N2        1.0  0.49594  0.37395  0.34080  1.0000
  C   C87       1.0  0.48811  0.32827  0.33395  1.0000
  N   N3        1.0  0.46364  0.31999  0.34228  1.0000
  C   C88       1.0  0.56162  0.64880  0.35697  1.0000
  N   N4        1.0  0.55153  0.60394  0.35947  1.0000
  C   C89       1.0  0.52671  0.59628  0.34963  1.0000
  N   N5        1.0  0.51230  0.63529  0.33648  1.0000
  C   C90       1.0  0.52131  0.68009  0.33119  1.0000
  N   N6        1.0  0.54590  0.68563  0.34144  1.0000
  C   C91       1.0  0.06153  0.85422  0.32874  1.0000
  N   N7        1.0  0.05249  0.89973  0.32444  1.0000
  C   C92       1.0  0.02796  0.91032  0.33270  1.0000
  N   N8        1.0  0.01242  0.87294  0.34671  1.0000
  C   C93       1.0  0.02033  0.82729  0.35360  1.0000
  N   N9        1.0  0.04480  0.81916  0.34442  1.0000
  C   C94       1.0  0.94694  0.14835  0.32647  1.0000
  N   N10       1.0  0.95698  0.10344  0.32471  1.0000
  C   C95       1.0  0.98181  0.09572  0.33433  1.0000
  N   N11       1.0  0.99628  0.13474  0.34650  1.0000
  C   C96       1.0  0.98732  0.17960  0.35102  1.0000
  N   N12       1.0  0.96272  0.18517  0.34101  1.0000
  C   C97       1.0  0.31517  0.23888  0.34156  1.0000
  N   N13       1.0  0.29691  0.27191  0.33461  1.0000
  C   C98       1.0  0.30083  0.32009  0.33247  1.0000
  N   N14       1.0  0.32484  0.33458  0.33955  1.0000
  C   C99       1.0  0.34409  0.30350  0.34833  1.0000
  N   N15       1.0  0.33845  0.25611  0.34936  1.0000
  C   C100      1.0  0.69297  0.76417  0.34427  1.0000
  N   N16       1.0  0.71132  0.73133  0.33656  1.0000
  C   C101      1.0  0.70758  0.68307  0.33396  1.0000
  N   N17       1.0  0.68363  0.66828  0.34118  1.0000
  C   C102      1.0  0.66431  0.69908  0.35077  1.0000
  N   N18       1.0  0.66976  0.74657  0.35238  1.0000
  C   C103      1.0  0.19331  0.73884  0.33968  1.0000
  N   N19       1.0  0.21156  0.77187  0.34627  1.0000
  C   C104      1.0  0.20766  0.82005  0.34865  1.0000
  N   N20       1.0  0.18363  0.83453  0.34221  1.0000
  C   C105      1.0  0.16437  0.80343  0.33379  1.0000
  N   N21       1.0  0.17001  0.75605  0.33250  1.0000
  C   C106      1.0  0.81556  0.26407  0.33941  1.0000
  N   N22       1.0  0.79724  0.23118  0.34741  1.0000
  C   C107      1.0  0.80106  0.18295  0.35036  1.0000
  N   N23       1.0  0.82501  0.16821  0.34314  1.0000
  C   C108      1.0  0.84429  0.19906  0.33335  1.0000
  N   N24       1.0  0.83880  0.24653  0.33141  1.0000
  C   C109      1.0  0.04577  0.34661  0.36339  1.0000
  N   N25       1.0  0.06991  0.35494  0.34217  1.0000
  C   C110      1.0  0.07854  0.40051  0.33055  1.0000
  N   N26       1.0  0.06250  0.43720  0.34177  1.0000
  C   C111      1.0  0.03855  0.42991  0.36130  1.0000
  N   N27       1.0  0.03054  0.38473  0.37030  1.0000
  C   C112      1.0  0.96090  0.66202  0.36224  1.0000
  N   N28       1.0  0.93719  0.65375  0.33545  1.0000
  C   C113      1.0  0.92895  0.60837  0.31895  1.0000
  N   N29       1.0  0.94506  0.57179  0.33032  1.0000
  C   C114      1.0  0.96867  0.57869  0.35572  1.0000
  N   N30       1.0  0.97611  0.62391  0.37063  1.0000
  C   C115      1.0  0.46254  0.84659  0.31539  1.0000
  N   N31       1.0  0.43854  0.85475  0.33856  1.0000
  C   C116      1.0  0.42995  0.90023  0.35119  1.0000
  N   N32       1.0  0.44597  0.93688  0.33934  1.0000
  C   C117      1.0  0.46986  0.93033  0.31745  1.0000
  N   N33       1.0  0.47758  0.88492  0.30698  1.0000
  C   C118      1.0  0.54811  0.16394  0.32185  1.0000
  N   N34       1.0  0.57183  0.15535  0.34784  1.0000
  C   C119      1.0  0.58007  0.10970  0.36111  1.0000
  N   N35       1.0  0.56403  0.07323  0.34688  1.0000
  C   C120      1.0  0.54030  0.08022  0.32253  1.0000
  N   N36       1.0  0.53301  0.12587  0.31135  1.0000
  C   C121      1.0  0.20310  0.53530  0.31765  1.0000
  N   N37       1.0  0.22318  0.50599  0.32603  1.0000
  C   C122      1.0  0.22089  0.45720  0.32690  1.0000
  N   N38       1.0  0.19763  0.43911  0.32224  1.0000
  C   C123      1.0  0.17724  0.46652  0.31465  1.0000
  N   N39       1.0  0.18058  0.51442  0.31180  1.0000
  C   C124      1.0  0.80580  0.46800  0.31459  1.0000
  N   N40       1.0  0.78560  0.49704  0.32382  1.0000
  C   C125      1.0  0.78762  0.54590  0.32368  1.0000
  N   N41       1.0  0.81077  0.56424  0.31724  1.0000
  C   C126      1.0  0.83128  0.53729  0.30878  1.0000
  N   N42       1.0  0.82820  0.48930  0.30688  1.0000
  C   C127      1.0  0.30545  0.03531  0.36332  1.0000
  N   N43       1.0  0.28537  0.00598  0.35480  1.0000
  C   C128      1.0  0.28766  0.95719  0.35405  1.0000
  N   N44       1.0  0.31092  0.93914  0.35900  1.0000
  C   C129      1.0  0.33131  0.96654  0.36681  1.0000
  N   N45       1.0  0.32797  0.01444  0.36951  1.0000
  C   C130      1.0  0.70278  0.96809  0.36794  1.0000
  N   N46       1.0  0.72304  0.99700  0.35937  1.0000
  C   C131      1.0  0.72108  0.04585  0.35939  1.0000
  N   N47       1.0  0.69796  0.06437  0.36501  1.0000
  C   C132      1.0  0.67739  0.03751  0.37278  1.0000
  N   N48       1.0  0.68038  0.98949  0.37494  1.0000
  C   C133      1.0  0.51552  0.46451  0.38228  1.0000
  C   C134      1.0  0.52746  0.50907  0.37998  1.0000
  H   H73       1.0  0.52566  0.43590  0.40373  1.0000
  H   H74       1.0  0.54549  0.51090  0.39952  1.0000
  C   C135      1.0  0.99353  0.04982  0.33279  1.0000
  C   C136      1.0  0.01866  0.04424  0.35690  1.0000
  C   C137      1.0  0.03098  0.99958  0.35646  1.0000
  C   C138      1.0  0.01779  0.95775  0.33027  1.0000
  H   H75       1.0  0.02838  0.07364  0.37695  1.0000
  C   C139      1.0  0.05710  0.99835  0.38712  1.0000
  H   H76       1.0  0.06379  0.03295  0.41053  1.0000
  H   H77       1.0  0.06896  0.98735  0.33172  1.0000
  H   H78       1.0  0.05908  0.97330  0.44285  1.0000
  C   C140      1.0  0.36933  0.31819  0.35665  1.0000
  C   C141      1.0  0.38701  0.28742  0.39574  1.0000
  C   C142      1.0  0.41242  0.29879  0.40068  1.0000
  C   C143      1.0  0.42112  0.34282  0.36355  1.0000
  H   H79       1.0  0.38121  0.25547  0.42153  1.0000
  C   C144      1.0  0.42887  0.26408  0.44744  1.0000
  H   H80       1.0  0.41873  0.23685  0.48474  1.0000
  H   H81       1.0  0.44055  0.28272  0.49574  1.0000
  H   H82       1.0  0.44038  0.24560  0.39853  1.0000
  C   C145      1.0  0.63918  0.68390  0.35943  1.0000
  C   C146      1.0  0.62178  0.71316  0.40381  1.0000
  C   C147      1.0  0.59638  0.70171  0.40874  1.0000
  C   C148      1.0  0.58743  0.65938  0.36580  1.0000
  H   H83       1.0  0.62777  0.74407  0.43334  1.0000
  C   C149      1.0  0.58019  0.73453  0.46116  1.0000
  H   H84       1.0  0.59056  0.75927  0.50343  1.0000
  H   H85       1.0  0.56821  0.71403  0.50563  1.0000
  H   H86       1.0  0.56897  0.75588  0.41557  1.0000
  C   C150      1.0  0.10515  0.87415  0.35646  1.0000
  C   C151      1.0  0.13044  0.86243  0.35854  1.0000
  H   H87       1.0  0.09981  0.90585  0.38455  1.0000
  H   H88       1.0  0.14241  0.88600  0.38763  1.0000
  C   C152      1.0  0.90351  0.12856  0.35834  1.0000
  C   C153      1.0  0.87824  0.14050  0.36128  1.0000
  H   H89       1.0  0.90910  0.09808  0.39035  1.0000
  H   H90       1.0  0.86647  0.11823  0.39485  1.0000
  C   C154      1.0  0.52574  0.28664  0.37711  1.0000
  C   C155      1.0  0.54141  0.24665  0.37363  1.0000
  H   H91       1.0  0.52870  0.31149  0.42645  1.0000
  H   H92       1.0  0.55488  0.24316  0.42128  1.0000
  C   C156      1.0  0.48364  0.72285  0.36990  1.0000
  C   C157      1.0  0.46828  0.76324  0.36520  1.0000
  H   H93       1.0  0.47963  0.69723  0.41677  1.0000
  H   H94       1.0  0.45397  0.76617  0.40959  1.0000
  C   C158      1.0  0.97209  0.70752  0.37340  1.0000
  C   C159      1.0  0.99183  0.71298  0.43475  1.0000
  C   C160      1.0  0.00778  0.75284  0.43270  1.0000
  C   C161      1.0  0.00360  0.78909  0.36734  1.0000
  H   H95       1.0  0.99548  0.68597  0.47925  1.0000
  C   C162      1.0  0.02837  0.75517  0.49881  1.0000
  H   H96       1.0  0.02710  0.72757  0.55047  1.0000
  H   H97       1.0  0.02823  0.78966  0.53293  1.0000
  H   H98       1.0  0.04594  0.75054  0.46452  1.0000
  C   C163      1.0  0.03433  0.30125  0.37232  1.0000
  C   C164      1.0  0.01381  0.29603  0.43037  1.0000
  C   C165      1.0  0.99806  0.25593  0.42708  1.0000
  C   C166      1.0  0.00326  0.21909  0.36398  1.0000
  H   H99       1.0  0.00957  0.32325  0.47367  1.0000
  C   C167      1.0  0.97671  0.25390  0.48997  1.0000
  H   H100      1.0  0.97712  0.28227  0.54031  1.0000
  H   H101      1.0  0.97670  0.21993  0.52588  1.0000
  H   H102      1.0  0.95955  0.25748  0.45261  1.0000
  C   C168      1.0  0.32350  0.16205  0.41230  1.0000
  C   C169      1.0  0.32097  0.11227  0.42006  1.0000
  H   H103      1.0  0.33541  0.17882  0.45533  1.0000
  H   H104      1.0  0.33141  0.09492  0.46716  1.0000
  C   C170      1.0  0.68428  0.84113  0.41461  1.0000
  C   C171      1.0  0.68679  0.89092  0.42274  1.0000
  H   H105      1.0  0.67226  0.82431  0.45715  1.0000
  H   H106      1.0  0.67625  0.90819  0.46965  1.0000
  C   C172      1.0  0.20371  0.58630  0.31711  1.0000
  C   C173      1.0  0.21740  0.61249  0.38100  1.0000
  C   C174      1.0  0.21420  0.66258  0.39278  1.0000
  C   C175      1.0  0.19790  0.68842  0.33494  1.0000
  H   H107      1.0  0.22828  0.59402  0.42524  1.0000
  C   C176      1.0  0.22634  0.68404  0.47274  1.0000
  H   H108      1.0  0.22333  0.66174  0.53198  1.0000
  H   H109      1.0  0.21915  0.71917  0.48927  1.0000
  H   H110      1.0  0.24611  0.68672  0.46077  1.0000
  C   C177      1.0  0.80541  0.41690  0.31534  1.0000
  C   C178      1.0  0.79165  0.39088  0.37929  1.0000
  C   C179      1.0  0.79480  0.34080  0.39168  1.0000
  C   C180      1.0  0.81110  0.31463  0.33433  1.0000
  H   H111      1.0  0.78062  0.40947  0.42286  1.0000
  C   C181      1.0  0.78250  0.31965  0.47162  1.0000
  H   H112      1.0  0.78533  0.34225  0.53058  1.0000
  H   H113      1.0  0.78974  0.28468  0.48896  1.0000
  H   H114      1.0  0.76277  0.31678  0.45911  1.0000
  C   C182      1.0  0.28423  0.40167  0.35584  1.0000
  C   C183      1.0  0.26514  0.43599  0.35530  1.0000
  H   H115      1.0  0.30104  0.41235  0.37943  1.0000
  H   H116      1.0  0.26883  0.46970  0.37803  1.0000
  C   C184      1.0  0.72426  0.60125  0.35482  1.0000
  C   C185      1.0  0.74335  0.56693  0.35310  1.0000
  H   H117      1.0  0.70744  0.59032  0.37793  1.0000
  H   H118      1.0  0.73964  0.53298  0.37451  1.0000
  C   C186      1.0  0.26745  0.92397  0.35348  1.0000
  C   C187      1.0  0.27106  0.87638  0.38278  1.0000
  C   C188      1.0  0.25216  0.84150  0.38415  1.0000
  C   C189      1.0  0.22794  0.85362  0.35358  1.0000
  H   H119      1.0  0.28811  0.86674  0.40563  1.0000
  C   C190      1.0  0.25882  0.79397  0.42208  1.0000
  H   H120      1.0  0.27747  0.79236  0.44934  1.0000
  H   H121      1.0  0.25767  0.76668  0.37001  1.0000
  H   H122      1.0  0.24636  0.78555  0.47718  1.0000
  C   C191      1.0  0.74137  0.07891  0.35863  1.0000
  C   C192      1.0  0.73803  0.12623  0.38999  1.0000
  C   C193      1.0  0.75692  0.16113  0.39022  1.0000
  C   C194      1.0  0.78085  0.14930  0.35654  1.0000
  H   H123      1.0  0.72118  0.13568  0.41507  1.0000
  C   C195      1.0  0.75066  0.20837  0.43016  1.0000
  H   H124      1.0  0.73228  0.20976  0.45986  1.0000
  H   H125      1.0  0.75131  0.23597  0.37856  1.0000
  H   H126      1.0  0.76366  0.21646  0.48376  1.0000
  C   C196      1.0  0.12233  0.38875  0.36072  1.0000
  C   C197      1.0  0.14685  0.40501  0.35855  1.0000
  H   H127      1.0  0.11809  0.36099  0.40275  1.0000
  H   H128      1.0  0.15957  0.38840  0.39851  1.0000
  C   C198      1.0  0.88509  0.61895  0.34817  1.0000
  C   C199      1.0  0.86089  0.60098  0.34833  1.0000
  H   H129      1.0  0.88901  0.64728  0.38924  1.0000
  H   H130      1.0  0.84807  0.61731  0.38830  1.0000
  C   C200      1.0  0.35524  0.94634  0.37208  1.0000
  C   C201      1.0  0.37365  0.96836  0.42465  1.0000
  C   C202      1.0  0.39824  0.95170  0.42569  1.0000
  C   C203      1.0  0.40495  0.91232  0.36959  1.0000
  H   H131      1.0  0.36908  0.99759  0.46253  1.0000
  C   C204      1.0  0.41602  0.97617  0.48663  1.0000
  H   H132      1.0  0.40684  0.99715  0.53865  1.0000
  H   H133      1.0  0.42769  0.00038  0.44822  1.0000
  H   H134      1.0  0.42754  0.94992  0.52087  1.0000
  C   C205      1.0  0.65375  0.05888  0.37881  1.0000
  C   C206      1.0  0.63514  0.03796  0.43202  1.0000
  C   C207      1.0  0.61106  0.05712  0.43616  1.0000
  C   C208      1.0  0.60488  0.09717  0.38107  1.0000
  H   H135      1.0  0.63928  0.00839  0.46969  1.0000
  C   C209      1.0  0.59369  0.03391  0.50021  1.0000
  H   H136      1.0  0.60239  0.03007  0.56602  1.0000
  H   H137      1.0  0.58873  0.99852  0.47543  1.0000
  H   H138      1.0  0.57692  0.05449  0.51067  1.0000
  C   C210      1.0  0.98570  0.54088  0.36088  1.0000
  C   C211      1.0  0.00484  0.54131  0.42532  1.0000
  C   C212      1.0  0.02277  0.50476  0.42865  1.0000
  C   C213      1.0  0.02156  0.46756  0.36382  1.0000
  H   H139      1.0  0.00548  0.56834  0.47164  1.0000
  C   C214      1.0  0.04162  0.50506  0.50126  1.0000
  H   H140      1.0  0.03923  0.53475  0.54803  1.0000
  H   H141      1.0  0.05997  0.50796  0.47211  1.0000
  H   H142      1.0  0.04045  0.47199  0.53989  1.0000
  C   C215      1.0  0.51070  0.96061  0.34901  1.0000
  C   C216      1.0  0.52845  0.99684  0.34998  1.0000
  H   H143      1.0  0.51523  0.92865  0.37810  1.0000
  H   H144      1.0  0.54506  0.98983  0.37955  1.0000
