data_image0
_chemical_formula_structural       C3H3CNO2NC7H4CHC2NO2NC3H3ONOC5H2C2HCNONONHC3HNOC3HOC2HOC3HNOC6H6N2C2HN2C12H6C3H3CH
_chemical_formula_sum              "C60 H36 N14 O12"
_cell_length_a       32.3546
_cell_length_b       32.3534
_cell_length_c       14.522
_cell_angle_alpha    90
_cell_angle_beta     90
_cell_angle_gamma    120.002

_space_group_name_H-M_alt    "P 1"
_space_group_IT_number       1

loop_
  _space_group_symop_operation_xyz
  'x, y, z'

loop_
  _atom_site_type_symbol
  _atom_site_label
  _atom_site_symmetry_multiplicity
  _atom_site_fract_x
  _atom_site_fract_y
  _atom_site_fract_z
  _atom_site_occupancy
  C   C1        1.0  0.27708  0.65151  0.30275  1.0000
  C   C2        1.0  0.22697  0.62283  0.31027  1.0000
  C   C3        1.0  0.38963  0.63379  0.30275  1.0000
  H   H1        1.0  0.29156  0.67016  0.24333  1.0000
  H   H2        1.0  0.20633  0.62115  0.25542  1.0000
  H   H3        1.0  0.37097  0.62962  0.24333  1.0000
  C   C4        1.0  0.05062  0.52920  0.27573  1.0000
  N   N1        1.0  0.07623  0.54088  0.19165  1.0000
  O   O1        1.0  0.06606  0.56616  0.14137  1.0000
  O   O2        1.0  0.06785  0.50404  0.14763  1.0000
  N   N2        1.0  0.35802  0.68312  0.36764  1.0000
  C   C5        1.0  0.30736  0.65432  0.37553  1.0000
  C   C6        1.0  0.37987  0.73377  0.37553  1.0000
  C   C7        1.0  0.38682  0.66126  0.37553  1.0000
  C   C8        1.0  0.37492  0.75505  0.45653  1.0000
  C   C9        1.0  0.20547  0.59584  0.39090  1.0000
  C   C10       1.0  0.23613  0.59922  0.46385  1.0000
  C   C11       1.0  0.28608  0.62809  0.45653  1.0000
  H   H4        1.0  0.39099  0.81880  0.52356  1.0000
  H   H5        1.0  0.35550  0.73411  0.51063  1.0000
  H   H6        1.0  0.30702  0.62960  0.51061  1.0000
  H   H7        1.0  0.22234  0.58041  0.52354  1.0000
  C   C12       1.0  0.15624  0.56508  0.39953  1.0000
  H   H8        1.0  0.14513  0.53757  0.44258  1.0000
  C   C13       1.0  0.07650  0.54407  0.35964  1.0000
  C   C14       1.0  0.05081  0.53315  0.44397  1.0000
  N   N3        1.0  0.07606  0.54990  0.52796  1.0000
  O   O3        1.0  0.06783  0.51603  0.58130  1.0000
  O   O4        1.0  0.06553  0.57769  0.56865  1.0000
  N   N4        1.0  0.12441  0.57033  0.35601  1.0000
  C   C15       1.0  0.40735  0.76406  0.30277  1.0000
  C   C16       1.0  0.42879  0.81417  0.31030  1.0000
  C   C17       1.0  0.41830  0.61235  0.31028  1.0000
  H   H9        1.0  0.41153  0.74958  0.24334  1.0000
  H   H10       1.0  0.44772  0.83481  0.25542  1.0000
  H   H11       1.0  0.41999  0.59342  0.25541  1.0000
  O   O5        1.0  0.47497  0.50811  0.14138  1.0000
  N   N5        1.0  0.49755  0.96491  0.19165  1.0000
  O   O6        1.0  0.46909  0.97329  0.14765  1.0000
  C   C18       1.0  0.42327  0.83567  0.39090  1.0000
  C   C19       1.0  0.39599  0.80500  0.46386  1.0000
  C   C20       1.0  0.44530  0.61785  0.39090  1.0000
  C   C21       1.0  0.44191  0.64514  0.46385  1.0000
  C   C22       1.0  0.41304  0.66621  0.45653  1.0000
  H   H12       1.0  0.46071  0.65014  0.52355  1.0000
  H   H13       1.0  0.41152  0.68563  0.51062  1.0000
  C   C23       1.0  0.47604  0.59938  0.39954  1.0000
  C   C24       1.0  0.44175  0.88489  0.39954  1.0000
  H   H14       1.0  0.42537  0.89601  0.44262  1.0000
  C   C25       1.0  0.49706  0.54065  0.35964  1.0000
  N   N6        1.0  0.49123  0.53438  0.52796  1.0000
  O   O7        1.0  0.46345  0.49606  0.56865  1.0000
  N   N7        1.0  0.47080  0.56230  0.35601  1.0000
  O   O8        1.0  0.48114  0.97331  0.58132  1.0000
  N   N8        1.0  0.47883  0.91673  0.35600  1.0000
  H   H15       1.0  0.50356  0.61578  0.44258  1.0000
  C   C26       1.0  0.54986  0.49080  0.36010  1.0000
  C   C27       1.0  0.53836  0.50540  0.27712  1.0000
  C   C28       1.0  0.51193  0.52964  0.27573  1.0000
  H   H16       1.0  0.54888  0.49783  0.21593  1.0000
  N   N9        1.0  0.50025  0.54357  0.19165  1.0000
  O   O9        1.0  0.53708  0.57202  0.14762  1.0000
  C   C29       1.0  0.55033  0.06729  0.36010  1.0000
  C   C30       1.0  0.53572  0.04119  0.27712  1.0000
  C   C31       1.0  0.51148  0.99052  0.27573  1.0000
  H   H17       1.0  0.54328  0.05928  0.21593  1.0000
  O   O10       1.0  0.53299  0.97508  0.14136  1.0000
  C   C32       1.0  0.50798  0.52588  0.44397  1.0000
  C   C33       1.0  0.53448  0.50177  0.44307  1.0000
  H   H18       1.0  0.54220  0.49192  0.50465  1.0000
  O   O11       1.0  0.52511  0.56002  0.58130  1.0000
  C   C34       1.0  0.50048  0.96464  0.35964  1.0000
  C   C35       1.0  0.51527  0.99033  0.44397  1.0000
  C   C36       1.0  0.53938  0.04094  0.44307  1.0000
  H   H19       1.0  0.54923  0.05851  0.50465  1.0000
  N   N10       1.0  0.50678  0.96508  0.52796  1.0000
  O   O12       1.0  0.54509  0.97561  0.56863  1.0000
  C   C37       1.0  0.64104  0.26755  0.30013  1.0000
  C   C38       1.0  0.61747  0.21756  0.31314  1.0000
  C   C39       1.0  0.77360  0.38173  0.30013  1.0000
  C   C40       1.0  0.82359  0.40815  0.31314  1.0000
  C   C41       1.0  0.65943  0.40012  0.30014  1.0000
  C   C42       1.0  0.63301  0.42369  0.31314  1.0000
  H   H20       1.0  0.63776  0.28088  0.23844  1.0000
  H   H21       1.0  0.59770  0.19593  0.26002  1.0000
  H   H22       1.0  0.76026  0.36512  0.23844  1.0000
  H   H23       1.0  0.84522  0.41001  0.26002  1.0000
  H   H24       1.0  0.67604  0.40340  0.23844  1.0000
  H   H25       1.0  0.63116  0.44347  0.26003  1.0000
  N   N11       1.0  0.57447  0.46743  0.35501  1.0000
  N   N12       1.0  0.57370  0.11527  0.35502  1.0000
  C   C43       1.0  0.97385  0.49128  0.36010  1.0000
  C   C44       1.0  0.99995  0.50277  0.27712  1.0000
  H   H26       1.0  0.98186  0.49225  0.21593  1.0000
  N   N13       1.0  0.92587  0.46666  0.35501  1.0000
  N   N14       1.0  0.69135  0.34980  0.35813  1.0000
  C   C45       1.0  0.74188  0.37755  0.37115  1.0000
  C   C46       1.0  0.66858  0.29927  0.37115  1.0000
  C   C47       1.0  0.66360  0.37257  0.37115  1.0000
  C   C48       1.0  0.62071  0.19747  0.39778  1.0000
  C   C49       1.0  0.64851  0.22969  0.46852  1.0000
  C   C50       1.0  0.67184  0.27946  0.45562  1.0000
  C   C51       1.0  0.84368  0.43149  0.39777  1.0000
  C   C52       1.0  0.81146  0.42706  0.46852  1.0000
  C   C53       1.0  0.76170  0.40063  0.45562  1.0000
  C   C54       1.0  0.60968  0.42045  0.39779  1.0000
  C   C55       1.0  0.61410  0.39265  0.46852  1.0000
  C   C56       1.0  0.64052  0.36930  0.45562  1.0000
  H   H27       1.0  0.65199  0.21721  0.53117  1.0000
  H   H28       1.0  0.69112  0.30129  0.50881  1.0000
  H   H29       1.0  0.73986  0.39807  0.50881  1.0000
  H   H30       1.0  0.82394  0.44303  0.53117  1.0000
  H   H31       1.0  0.59813  0.38916  0.53118  1.0000
  H   H32       1.0  0.64308  0.35003  0.50881  1.0000
  C   C57       1.0  0.58323  0.44325  0.41476  1.0000
  C   C58       1.0  0.89293  0.45796  0.41473  1.0000
  C   C59       1.0  0.59792  0.14821  0.41474  1.0000
  H   H33       1.0  0.56949  0.43979  0.47740  1.0000
  H   H34       1.0  0.90322  0.47174  0.47734  1.0000
  H   H35       1.0  0.60142  0.13793  0.47735  1.0000
  C   C60       1.0  0.00020  0.50666  0.44307  1.0000
  H   H36       1.0  0.98263  0.49894  0.50465  1.0000
