data_image0
_chemical_formula_structural       C3HCH3C3HCH3C3HCH3C3HCH3C3HCH3C3HCH3C3HCH3C3HCH3C3HCH3C3HCH3C3HCH3C3HCH3C3HCH3C3HCH3C3HCH3C3HCH3C3HCH3C3HCH3CNCNCNCNCNCNCNCNCNCNCNCNCNCNCNCNCNCNCNCNCNCNCNCNCNCNCNCNCNCNCNCNCNCNCNCNC3HCH3C3HCH3C3HCH3C3HCH3C3HCH3C3HCH3C3HCH3C3HCH3C3HCH3C3HCH3C3HCH3C3HCH3C3HCH3C3HCH3C3HCH3C3HCH3C3HCH3C3HCH3
_chemical_formula_sum              "C180 H144 N36"
_cell_length_a       39.3178
_cell_length_b       39.3178
_cell_length_c       14.8144
_cell_angle_alpha    90
_cell_angle_beta     90
_cell_angle_gamma    120

_space_group_name_H-M_alt    "P 1"
_space_group_IT_number       1

loop_
  _space_group_symop_operation_xyz
  'x, y, z'

loop_
  _atom_site_type_symbol
  _atom_site_label
  _atom_site_symmetry_multiplicity
  _atom_site_fract_x
  _atom_site_fract_y
  _atom_site_fract_z
  _atom_site_occupancy
  C   C1        1.0  0.21805  0.45959  0.26406  1.0000
  C   C2        1.0  0.25426  0.45981  0.26301  1.0000
  C   C3        1.0  0.27272  0.46009  0.34628  1.0000
  H   H1        1.0  0.20549  0.46071  0.20438  1.0000
  C   C4        1.0  0.27277  0.46100  0.17434  1.0000
  H   H2        1.0  0.25487  0.46005  0.11698  1.0000
  H   H3        1.0  0.27731  0.43587  0.16871  1.0000
  H   H4        1.0  0.30112  0.48797  0.16898  1.0000
  C   C5        1.0  0.57442  0.77992  0.26409  1.0000
  C   C6        1.0  0.57420  0.81592  0.26303  1.0000
  C   C7        1.0  0.57394  0.83411  0.34628  1.0000
  H   H5        1.0  0.57330  0.76624  0.20440  1.0000
  C   C8        1.0  0.57300  0.83322  0.17435  1.0000
  H   H6        1.0  0.57393  0.81626  0.11700  1.0000
  H   H7        1.0  0.59812  0.86289  0.16869  1.0000
  H   H8        1.0  0.54602  0.83459  0.16900  1.0000
  C   C9        1.0  0.25407  0.81595  0.26407  1.0000
  C   C10       1.0  0.21807  0.77974  0.26301  1.0000
  C   C11       1.0  0.19988  0.76128  0.34627  1.0000
  H   H9        1.0  0.26776  0.82852  0.20440  1.0000
  C   C12       1.0  0.20076  0.76124  0.17434  1.0000
  H   H10       1.0  0.21772  0.77914  0.11699  1.0000
  H   H11       1.0  0.17110  0.75671  0.16870  1.0000
  H   H12       1.0  0.19939  0.73289  0.16896  1.0000
  C   C13       1.0  0.81297  0.57737  0.26407  1.0000
  C   C14       1.0  0.77675  0.57716  0.26301  1.0000
  C   C15       1.0  0.75829  0.57688  0.34626  1.0000
  H   H13       1.0  0.82553  0.57625  0.20438  1.0000
  C   C16       1.0  0.75825  0.57596  0.17434  1.0000
  H   H14       1.0  0.77615  0.57690  0.11698  1.0000
  H   H15       1.0  0.75372  0.60109  0.16869  1.0000
  H   H16       1.0  0.72990  0.54899  0.16897  1.0000
  C   C17       1.0  0.45660  0.25704  0.26406  1.0000
  C   C18       1.0  0.45682  0.22104  0.26301  1.0000
  C   C19       1.0  0.45710  0.20286  0.34628  1.0000
  H   H17       1.0  0.45773  0.27072  0.20438  1.0000
  C   C20       1.0  0.45801  0.20372  0.17434  1.0000
  H   H18       1.0  0.45707  0.22068  0.11698  1.0000
  H   H19       1.0  0.43288  0.17406  0.16871  1.0000
  H   H20       1.0  0.48499  0.20235  0.16898  1.0000
  C   C21       1.0  0.77693  0.22100  0.26408  1.0000
  C   C22       1.0  0.81292  0.25722  0.26302  1.0000
  C   C23       1.0  0.83111  0.27568  0.34627  1.0000
  H   H21       1.0  0.76324  0.20844  0.20439  1.0000
  C   C24       1.0  0.83022  0.27573  0.17434  1.0000
  H   H22       1.0  0.81325  0.25783  0.11699  1.0000
  H   H23       1.0  0.85988  0.28027  0.16868  1.0000
  H   H24       1.0  0.83158  0.30407  0.16899  1.0000
  C   C25       1.0  0.14935  0.54915  0.34610  1.0000
  C   C26       1.0  0.14898  0.60315  0.26231  1.0000
  C   C27       1.0  0.14916  0.56723  0.26419  1.0000
  H   H25       1.0  0.14781  0.55328  0.20467  1.0000
  C   C28       1.0  0.14773  0.61886  0.17149  1.0000
  H   H26       1.0  0.14838  0.64687  0.17380  1.0000
  H   H27       1.0  0.12093  0.59787  0.13637  1.0000
  H   H28       1.0  0.17299  0.62321  0.13176  1.0000
  C   C29       1.0  0.48486  0.62167  0.34610  1.0000
  C   C30       1.0  0.43086  0.56731  0.26233  1.0000
  C   C31       1.0  0.46678  0.60340  0.26420  1.0000
  H   H29       1.0  0.48073  0.61600  0.20468  1.0000
  C   C32       1.0  0.41515  0.55035  0.17150  1.0000
  H   H30       1.0  0.38713  0.52299  0.17381  1.0000
  H   H31       1.0  0.43613  0.54453  0.13639  1.0000
  H   H32       1.0  0.41080  0.57126  0.13178  1.0000
  C   C33       1.0  0.41232  0.88463  0.34608  1.0000
  C   C34       1.0  0.46669  0.88500  0.26231  1.0000
  C   C35       1.0  0.43059  0.88482  0.26418  1.0000
  H   H33       1.0  0.41800  0.88618  0.20467  1.0000
  C   C36       1.0  0.48365  0.88625  0.17147  1.0000
  H   H34       1.0  0.51100  0.88559  0.17378  1.0000
  H   H35       1.0  0.48947  0.91305  0.13637  1.0000
  H   H36       1.0  0.46273  0.86099  0.13174  1.0000
  C   C37       1.0  0.88168  0.48782  0.34610  1.0000
  C   C38       1.0  0.88203  0.43382  0.26232  1.0000
  C   C39       1.0  0.88185  0.46973  0.26418  1.0000
  H   H37       1.0  0.88321  0.48369  0.20467  1.0000
  C   C40       1.0  0.88327  0.41810  0.17150  1.0000
  H   H38       1.0  0.88260  0.39008  0.17380  1.0000
  H   H39       1.0  0.91007  0.43908  0.13637  1.0000
  H   H40       1.0  0.85801  0.41375  0.13177  1.0000
  C   C41       1.0  0.54617  0.41530  0.34611  1.0000
  C   C42       1.0  0.60016  0.46967  0.26232  1.0000
  C   C43       1.0  0.56424  0.43357  0.26420  1.0000
  H   H41       1.0  0.55029  0.42097  0.20468  1.0000
  C   C44       1.0  0.61587  0.48663  0.17150  1.0000
  H   H42       1.0  0.64389  0.51398  0.17380  1.0000
  H   H43       1.0  0.59488  0.49244  0.13638  1.0000
  H   H44       1.0  0.62022  0.46571  0.13176  1.0000
  C   C45       1.0  0.61868  0.15230  0.34610  1.0000
  C   C46       1.0  0.56431  0.15194  0.26233  1.0000
  C   C47       1.0  0.60041  0.15212  0.26419  1.0000
  H   H45       1.0  0.61300  0.15076  0.20467  1.0000
  C   C48       1.0  0.54736  0.15069  0.17150  1.0000
  H   H46       1.0  0.52000  0.15136  0.17381  1.0000
  H   H47       1.0  0.54154  0.12389  0.13639  1.0000
  H   H48       1.0  0.56827  0.17596  0.13177  1.0000
  C   C49       1.0  0.99466  0.38031  0.26383  1.0000
  C   C50       1.0  0.03633  0.40145  0.26259  1.0000
  C   C51       1.0  0.05756  0.41267  0.34573  1.0000
  H   H49       1.0  0.97952  0.37454  0.20425  1.0000
  C   C52       1.0  0.05688  0.41337  0.17380  1.0000
  H   H50       1.0  0.03676  0.40163  0.11655  1.0000
  H   H51       1.0  0.07762  0.40267  0.16842  1.0000
  H   H52       1.0  0.07292  0.44532  0.16794  1.0000
  C   C53       1.0  0.65368  0.63582  0.26376  1.0000
  C   C54       1.0  0.63255  0.65634  0.26253  1.0000
  C   C55       1.0  0.62134  0.66633  0.34571  1.0000
  H   H53       1.0  0.65946  0.62645  0.20418  1.0000
  C   C56       1.0  0.62064  0.66501  0.17376  1.0000
  H   H54       1.0  0.63237  0.65663  0.11649  1.0000
  H   H55       1.0  0.63134  0.69644  0.16841  1.0000
  H   H56       1.0  0.58869  0.64910  0.16790  1.0000
  C   C57       1.0  0.39816  0.03932  0.26376  1.0000
  C   C58       1.0  0.37763  0.99765  0.26253  1.0000
  C   C59       1.0  0.36764  0.97644  0.34570  1.0000
  H   H57       1.0  0.40752  0.05446  0.20418  1.0000
  C   C60       1.0  0.36897  0.97708  0.17377  1.0000
  H   H58       1.0  0.37735  0.99719  0.11651  1.0000
  H   H59       1.0  0.33753  0.95634  0.16842  1.0000
  H   H60       1.0  0.38488  0.96104  0.16791  1.0000
  C   C61       1.0  0.03634  0.65667  0.26377  1.0000
  C   C62       1.0  0.99468  0.63553  0.26254  1.0000
  C   C63       1.0  0.97347  0.62430  0.34570  1.0000
  H   H61       1.0  0.05149  0.66245  0.20419  1.0000
  C   C64       1.0  0.97411  0.62362  0.17378  1.0000
  H   H62       1.0  0.99421  0.63535  0.11651  1.0000
  H   H63       1.0  0.95336  0.63431  0.16843  1.0000
  H   H64       1.0  0.95806  0.59167  0.16792  1.0000
  C   C65       1.0  0.37733  0.40115  0.26377  1.0000
  C   C66       1.0  0.39847  0.38062  0.26256  1.0000
  C   C67       1.0  0.40969  0.37061  0.34572  1.0000
  H   H65       1.0  0.37156  0.41052  0.20419  1.0000
  C   C68       1.0  0.41037  0.37196  0.17378  1.0000
  H   H66       1.0  0.39864  0.38034  0.11652  1.0000
  H   H67       1.0  0.39968  0.34052  0.16843  1.0000
  H   H68       1.0  0.44232  0.38786  0.16792  1.0000
  C   C69       1.0  0.63283  0.99762  0.26378  1.0000
  C   C70       1.0  0.65336  0.03929  0.26255  1.0000
  C   C71       1.0  0.66335  0.06049  0.34572  1.0000
  H   H69       1.0  0.62345  0.98247  0.20421  1.0000
  C   C72       1.0  0.66201  0.05985  0.17378  1.0000
  H   H70       1.0  0.65363  0.03974  0.11651  1.0000
  H   H71       1.0  0.69345  0.08059  0.16842  1.0000
  H   H72       1.0  0.64611  0.07590  0.16791  1.0000
  C   C73       1.0  0.09800  0.44228  0.34535  1.0000
  N   N1        1.0  0.12869  0.43520  0.34498  1.0000
  C   C74       1.0  0.16666  0.46557  0.34515  1.0000
  N   N2        1.0  0.17348  0.50312  0.34571  1.0000
  C   C75       1.0  0.14332  0.51065  0.34616  1.0000
  N   N3        1.0  0.10596  0.48009  0.34605  1.0000
  C   C76       1.0  0.59173  0.67717  0.34534  1.0000
  N   N4        1.0  0.59882  0.71494  0.34498  1.0000
  C   C77       1.0  0.56846  0.72256  0.34515  1.0000
  N   N5        1.0  0.53090  0.69183  0.34572  1.0000
  C   C78       1.0  0.52336  0.65413  0.34616  1.0000
  N   N6        1.0  0.55392  0.64733  0.34604  1.0000
  C   C79       1.0  0.35680  0.93599  0.34537  1.0000
  N   N7        1.0  0.31904  0.90531  0.34500  1.0000
  C   C80       1.0  0.31143  0.86733  0.34518  1.0000
  N   N8        1.0  0.34216  0.86051  0.34573  1.0000
  C   C81       1.0  0.37986  0.89067  0.34616  1.0000
  N   N9        1.0  0.38665  0.92803  0.34606  1.0000
  C   C82       1.0  0.93302  0.59469  0.34538  1.0000
  N   N10       1.0  0.90233  0.60177  0.34500  1.0000
  C   C83       1.0  0.86436  0.57140  0.34516  1.0000
  N   N11       1.0  0.85754  0.53384  0.34573  1.0000
  C   C84       1.0  0.88771  0.52631  0.34617  1.0000
  N   N12       1.0  0.92506  0.55688  0.34606  1.0000
  C   C85       1.0  0.43929  0.35978  0.34535  1.0000
  N   N13       1.0  0.43221  0.32201  0.34498  1.0000
  C   C86       1.0  0.46258  0.31440  0.34515  1.0000
  N   N14       1.0  0.50013  0.34514  0.34572  1.0000
  C   C87       1.0  0.50767  0.38284  0.34616  1.0000
  N   N15       1.0  0.47710  0.38963  0.34605  1.0000
  C   C88       1.0  0.67419  0.10094  0.34535  1.0000
  N   N16       1.0  0.71195  0.13162  0.34498  1.0000
  C   C89       1.0  0.71957  0.16960  0.34514  1.0000
  N   N17       1.0  0.68883  0.17642  0.34571  1.0000
  C   C90       1.0  0.65114  0.14626  0.34614  1.0000
  N   N18       1.0  0.64434  0.10891  0.34604  1.0000
  C   C91       1.0  0.43890  0.10091  0.34512  1.0000
  N   N19       1.0  0.43209  0.13176  0.34543  1.0000
  C   C92       1.0  0.46264  0.16965  0.34592  1.0000
  N   N20       1.0  0.50010  0.17622  0.34632  1.0000
  C   C93       1.0  0.50736  0.14588  0.34602  1.0000
  N   N21       1.0  0.47662  0.10861  0.34532  1.0000
  C   C94       1.0  0.67454  0.59507  0.34512  1.0000
  N   N22       1.0  0.71220  0.60189  0.34543  1.0000
  C   C95       1.0  0.71954  0.57134  0.34591  1.0000
  N   N23       1.0  0.68864  0.53388  0.34631  1.0000
  C   C96       1.0  0.65104  0.52662  0.34601  1.0000
  N   N24       1.0  0.64451  0.55736  0.34532  1.0000
  C   C97       1.0  0.93305  0.35943  0.34512  1.0000
  N   N25       1.0  0.90221  0.32178  0.34543  1.0000
  C   C98       1.0  0.86432  0.31444  0.34591  1.0000
  N   N26       1.0  0.85775  0.34533  0.34630  1.0000
  C   C99       1.0  0.88809  0.38293  0.34601  1.0000
  N   N27       1.0  0.92536  0.38946  0.34532  1.0000
  C   C100      1.0  0.59210  0.93605  0.34512  1.0000
  N   N28       1.0  0.59893  0.90521  0.34545  1.0000
  C   C101      1.0  0.56838  0.86732  0.34591  1.0000
  N   N29       1.0  0.53092  0.86074  0.34630  1.0000
  C   C102      1.0  0.52365  0.89107  0.34601  1.0000
  N   N30       1.0  0.55438  0.92835  0.34532  1.0000
  C   C103      1.0  0.35648  0.44189  0.34512  1.0000
  N   N31       1.0  0.31882  0.43508  0.34543  1.0000
  C   C104      1.0  0.31148  0.46563  0.34593  1.0000
  N   N32       1.0  0.34237  0.50309  0.34633  1.0000
  C   C105      1.0  0.37997  0.51035  0.34602  1.0000
  N   N33       1.0  0.38650  0.47961  0.34532  1.0000
  C   C106      1.0  0.09794  0.67751  0.34512  1.0000
  N   N34       1.0  0.12878  0.71518  0.34543  1.0000
  C   C107      1.0  0.16668  0.72252  0.34591  1.0000
  N   N35       1.0  0.17324  0.69163  0.34630  1.0000
  C   C108      1.0  0.14290  0.65403  0.34601  1.0000
  N   N36       1.0  0.10563  0.64749  0.34531  1.0000
  C   C109      1.0  0.19952  0.45972  0.34542  1.0000
  C   C110      1.0  0.25423  0.46021  0.42919  1.0000
  C   C111      1.0  0.21809  0.46011  0.42715  1.0000
  H   H73       1.0  0.20554  0.46155  0.48665  1.0000
  C   C112      1.0  0.27119  0.46166  0.52010  1.0000
  H   H74       1.0  0.29850  0.46091  0.51803  1.0000
  H   H75       1.0  0.25023  0.43655  0.56016  1.0000
  H   H76       1.0  0.27710  0.48860  0.55473  1.0000
  C   C113      1.0  0.57432  0.76127  0.34544  1.0000
  C   C114      1.0  0.57380  0.81548  0.42918  1.0000
  C   C115      1.0  0.57390  0.77944  0.42715  1.0000
  H   H77       1.0  0.57247  0.76547  0.48666  1.0000
  C   C116      1.0  0.57234  0.83098  0.52010  1.0000
  H   H78       1.0  0.57310  0.85906  0.51802  1.0000
  H   H79       1.0  0.59744  0.83514  0.56017  1.0000
  H   H80       1.0  0.54540  0.80996  0.55470  1.0000
  C   C117      1.0  0.27273  0.83446  0.34545  1.0000
  C   C118      1.0  0.21850  0.77977  0.42918  1.0000
  C   C119      1.0  0.25454  0.81591  0.42717  1.0000
  H   H81       1.0  0.26852  0.82845  0.48668  1.0000
  C   C120      1.0  0.20298  0.76280  0.52010  1.0000
  H   H82       1.0  0.17491  0.73550  0.51801  1.0000
  H   H83       1.0  0.19883  0.78376  0.56015  1.0000
  H   H84       1.0  0.22400  0.75689  0.55472  1.0000
  C   C121      1.0  0.83149  0.57724  0.34543  1.0000
  C   C122      1.0  0.77679  0.57675  0.42917  1.0000
  C   C123      1.0  0.81293  0.57685  0.42715  1.0000
  H   H85       1.0  0.82547  0.57541  0.48665  1.0000
  C   C124      1.0  0.75982  0.57530  0.52009  1.0000
  H   H86       1.0  0.73252  0.57606  0.51801  1.0000
  H   H87       1.0  0.78078  0.60040  0.56015  1.0000
  H   H88       1.0  0.75391  0.54836  0.55471  1.0000
  C   C125      1.0  0.45674  0.27570  0.34542  1.0000
  C   C126      1.0  0.45722  0.22148  0.42918  1.0000
  C   C127      1.0  0.45713  0.25753  0.42715  1.0000
  H   H89       1.0  0.45856  0.27150  0.48665  1.0000
  C   C128      1.0  0.45868  0.20597  0.52010  1.0000
  H   H90       1.0  0.45792  0.17791  0.51802  1.0000
  H   H91       1.0  0.43357  0.20182  0.56016  1.0000
  H   H92       1.0  0.48561  0.22699  0.55472  1.0000
  C   C129      1.0  0.75828  0.20245  0.34543  1.0000
  C   C130      1.0  0.81248  0.25718  0.42917  1.0000
  C   C131      1.0  0.77644  0.22104  0.42715  1.0000
  H   H93       1.0  0.76247  0.20850  0.48665  1.0000
  C   C132      1.0  0.82798  0.27415  0.52009  1.0000
  H   H94       1.0  0.85605  0.30147  0.51801  1.0000
  H   H95       1.0  0.83215  0.25321  0.56016  1.0000
  H   H96       1.0  0.80696  0.28006  0.55470  1.0000
  C   C133      1.0  0.14953  0.56754  0.42781  1.0000
  C   C134      1.0  0.14926  0.60342  0.42904  1.0000
  C   C135      1.0  0.14879  0.62131  0.34558  1.0000
  H   H97       1.0  0.14840  0.55376  0.48737  1.0000
  C   C136      1.0  0.14821  0.62080  0.51775  1.0000
  H   H98       1.0  0.14930  0.60391  0.57508  1.0000
  H   H99       1.0  0.12122  0.62214  0.52342  1.0000
  H   H100      1.0  0.17333  0.65049  0.52312  1.0000
  C   C137      1.0  0.46647  0.60347  0.42781  1.0000
  C   C138      1.0  0.43058  0.56732  0.42904  1.0000
  C   C139      1.0  0.41269  0.54895  0.34559  1.0000
  H   H101      1.0  0.48024  0.61612  0.48738  1.0000
  C   C140      1.0  0.41320  0.54889  0.51775  1.0000
  H   H102      1.0  0.43010  0.56688  0.57508  1.0000
  H   H103      1.0  0.41186  0.52056  0.52342  1.0000
  H   H104      1.0  0.38352  0.54433  0.52313  1.0000
  C   C141      1.0  0.43054  0.88446  0.42779  1.0000
  C   C142      1.0  0.46669  0.88473  0.42900  1.0000
  C   C143      1.0  0.48504  0.88518  0.34556  1.0000
  H   H105      1.0  0.41789  0.88559  0.48735  1.0000
  C   C144      1.0  0.48512  0.88578  0.51772  1.0000
  H   H106      1.0  0.46713  0.88469  0.57505  1.0000
  H   H107      1.0  0.51344  0.91276  0.52338  1.0000
  H   H108      1.0  0.48968  0.86066  0.52310  1.0000
  C   C145      1.0  0.88148  0.46943  0.42781  1.0000
  C   C146      1.0  0.88175  0.43355  0.42904  1.0000
  C   C147      1.0  0.88222  0.41565  0.34559  1.0000
  H   H109      1.0  0.88261  0.48321  0.48738  1.0000
  C   C148      1.0  0.88279  0.41616  0.51775  1.0000
  H   H110      1.0  0.88170  0.43306  0.57508  1.0000
  H   H111      1.0  0.90977  0.41481  0.52342  1.0000
  H   H112      1.0  0.85767  0.38648  0.52312  1.0000
  C   C149      1.0  0.56456  0.43351  0.42782  1.0000
  C   C150      1.0  0.60044  0.46966  0.42904  1.0000
  C   C151      1.0  0.61832  0.48801  0.34559  1.0000
  H   H113      1.0  0.55078  0.42086  0.48738  1.0000
  C   C152      1.0  0.61782  0.48809  0.51775  1.0000
  H   H114      1.0  0.60092  0.47011  0.57508  1.0000
  H   H115      1.0  0.61916  0.51642  0.52342  1.0000
  H   H116      1.0  0.64750  0.49266  0.52313  1.0000
  C   C153      1.0  0.60047  0.15249  0.42781  1.0000
  C   C154      1.0  0.56432  0.15223  0.42903  1.0000
  C   C155      1.0  0.54596  0.15176  0.34559  1.0000
  H   H117      1.0  0.61313  0.15136  0.48737  1.0000
  C   C156      1.0  0.54590  0.15118  0.51775  1.0000
  H   H118      1.0  0.56388  0.15227  0.57507  1.0000
  H   H119      1.0  0.51757  0.12420  0.52342  1.0000
  H   H120      1.0  0.54134  0.17630  0.52312  1.0000
  C   C157      1.0  0.97322  0.36992  0.34525  1.0000
  C   C158      1.0  0.03618  0.40172  0.42869  1.0000
  C   C159      1.0  0.99453  0.38075  0.42686  1.0000
  H   H121      1.0  0.97933  0.37525  0.48638  1.0000
  C   C160      1.0  0.05500  0.41301  0.51945  1.0000
  H   H122      1.0  0.08695  0.42772  0.51715  1.0000
  H   H123      1.0  0.04492  0.38676  0.56104  1.0000
  H   H124      1.0  0.04680  0.43269  0.55250  1.0000
  C   C161      1.0  0.66404  0.62475  0.34519  1.0000
  C   C162      1.0  0.63227  0.65591  0.42870  1.0000
  C   C163      1.0  0.65324  0.63522  0.42685  1.0000
  H   H125      1.0  0.65873  0.62552  0.48636  1.0000
  C   C164      1.0  0.62098  0.66345  0.51945  1.0000
  H   H126      1.0  0.60628  0.68069  0.51715  1.0000
  H   H127      1.0  0.64723  0.67961  0.56105  1.0000
  H   H128      1.0  0.60130  0.63556  0.55250  1.0000
  C   C165      1.0  0.40923  0.06074  0.34519  1.0000
  C   C166      1.0  0.37807  0.99781  0.42868  1.0000
  C   C167      1.0  0.39876  0.03946  0.42684  1.0000
  H   H129      1.0  0.40847  0.05466  0.48635  1.0000
  C   C168      1.0  0.37054  0.97899  0.51944  1.0000
  H   H130      1.0  0.35329  0.94703  0.51715  1.0000
  H   H131      1.0  0.35438  0.98908  0.56104  1.0000
  H   H132      1.0  0.39842  0.98718  0.55248  1.0000
  C   C169      1.0  0.05777  0.66702  0.34519  1.0000
  C   C170      1.0  0.99483  0.63524  0.42869  1.0000
  C   C171      1.0  0.03649  0.65621  0.42685  1.0000
  H   H133      1.0  0.05168  0.66170  0.48635  1.0000
  C   C172      1.0  0.97601  0.62396  0.51945  1.0000
  H   H134      1.0  0.94406  0.60925  0.51715  1.0000
  H   H135      1.0  0.98610  0.65020  0.56104  1.0000
  H   H136      1.0  0.98421  0.60426  0.55248  1.0000
  C   C173      1.0  0.36697  0.41222  0.34519  1.0000
  C   C174      1.0  0.39874  0.38105  0.42868  1.0000
  C   C175      1.0  0.37778  0.40175  0.42684  1.0000
  H   H137      1.0  0.37228  0.41145  0.48635  1.0000
  C   C176      1.0  0.41002  0.37352  0.51943  1.0000
  H   H138      1.0  0.42473  0.35627  0.51714  1.0000
  H   H139      1.0  0.38378  0.35736  0.56103  1.0000
  H   H140      1.0  0.42971  0.40140  0.55248  1.0000
  C   C177      1.0  0.62177  0.97623  0.34525  1.0000
  C   C178      1.0  0.65294  0.03914  0.42874  1.0000
  C   C179      1.0  0.63226  0.99749  0.42692  1.0000
  H   H141      1.0  0.62256  0.98229  0.48643  1.0000
  C   C180      1.0  0.66050  0.05798  0.51947  1.0000
  H   H142      1.0  0.67774  0.08993  0.51715  1.0000
  H   H143      1.0  0.67667  0.04791  0.56106  1.0000
  H   H144      1.0  0.63262  0.04979  0.55255  1.0000
