data_image0
_chemical_formula_structural       C17H12C17H12C2H4C2H4C2H4C13H9C13H9C4NC2NHCHC4NC2NHCHC4NC2NHCH
_chemical_formula_sum              "C87 H60 N6"
_cell_length_a       37.445
_cell_length_b       37.4196
_cell_length_c       14.8808
_cell_angle_alpha    90
_cell_angle_beta     90
_cell_angle_gamma    120.036

_space_group_name_H-M_alt    "P 1"
_space_group_IT_number       1

loop_
  _space_group_symop_operation_xyz
  'x, y, z'

loop_
  _atom_site_type_symbol
  _atom_site_label
  _atom_site_symmetry_multiplicity
  _atom_site_fract_x
  _atom_site_fract_y
  _atom_site_fract_z
  _atom_site_occupancy
  C   C1        1.0  0.47716  0.89128  0.31779  1.0000
  C   C2        1.0  0.45375  0.84782  0.32061  1.0000
  C   C3        1.0  0.38906  0.75705  0.29566  1.0000
  C   C4        1.0  0.36429  0.71438  0.30328  1.0000
  C   C5        1.0  0.32073  0.69519  0.30266  1.0000
  C   C6        1.0  0.29549  0.65170  0.30305  1.0000
  C   C7        1.0  0.31464  0.62729  0.30240  1.0000
  C   C8        1.0  0.35809  0.64554  0.30299  1.0000
  C   C9        1.0  0.38251  0.68914  0.30260  1.0000
  C   C10       1.0  0.37598  0.62080  0.29527  1.0000
  C   C11       1.0  0.42367  0.59838  0.34490  1.0000
  C   C12       1.0  0.40205  0.55614  0.32020  1.0000
  C   C13       1.0  0.42209  0.53276  0.31725  1.0000
  C   C14       1.0  0.25284  0.63381  0.29535  1.0000
  C   C15       1.0  0.18268  0.58593  0.34449  1.0000
  C   C16       1.0  0.15811  0.54350  0.36554  1.0000
  C   C17       1.0  0.11474  0.52363  0.36323  1.0000
  H   H1        1.0  0.50774  0.90504  0.30118  1.0000
  H   H2        1.0  0.46817  0.83141  0.30612  1.0000
  H   H3        1.0  0.41401  0.70270  0.29956  1.0000
  H   H4        1.0  0.30720  0.71316  0.29971  1.0000
  H   H5        1.0  0.29667  0.59576  0.29926  1.0000
  H   H6        1.0  0.40523  0.50212  0.30092  1.0000
  H   H7        1.0  0.37120  0.54167  0.30592  1.0000
  H   H8        1.0  0.09811  0.49290  0.37892  1.0000
  H   H9        1.0  0.17162  0.52656  0.38339  1.0000
  H   H10       1.0  0.36680  0.60112  0.24399  1.0000
  H   H11       1.0  0.40869  0.76757  0.24432  1.0000
  H   H12       1.0  0.24238  0.64324  0.24448  1.0000
  C   C18       1.0  0.53738  0.11702  0.35837  1.0000
  C   C19       1.0  0.56162  0.16040  0.36039  1.0000
  C   C20       1.0  0.62295  0.25059  0.30394  1.0000
  C   C21       1.0  0.64792  0.29348  0.31012  1.0000
  C   C22       1.0  0.69155  0.31320  0.30973  1.0000
  C   C23       1.0  0.71667  0.35674  0.31026  1.0000
  C   C24       1.0  0.69698  0.38068  0.30949  1.0000
  C   C25       1.0  0.65347  0.36225  0.30995  1.0000
  C   C26       1.0  0.62952  0.31858  0.30936  1.0000
  C   C27       1.0  0.63560  0.38722  0.30363  1.0000
  C   C28       1.0  0.58399  0.40576  0.34012  1.0000
  C   C29       1.0  0.60662  0.44840  0.36032  1.0000
  C   C30       1.0  0.58750  0.47263  0.35833  1.0000
  C   C31       1.0  0.75954  0.37463  0.30420  1.0000
  C   C32       1.0  0.82972  0.42634  0.34041  1.0000
  C   C33       1.0  0.85441  0.46833  0.31611  1.0000
  C   C34       1.0  0.89774  0.48723  0.31359  1.0000
  H   H13       1.0  0.50668  0.10351  0.37370  1.0000
  H   H14       1.0  0.54799  0.17720  0.37829  1.0000
  H   H15       1.0  0.59801  0.30474  0.30620  1.0000
  H   H16       1.0  0.70536  0.29550  0.30683  1.0000
  H   H17       1.0  0.71467  0.41221  0.30635  1.0000
  H   H18       1.0  0.60468  0.50331  0.37414  1.0000
  H   H19       1.0  0.63699  0.46200  0.37868  1.0000
  H   H20       1.0  0.91466  0.51789  0.29752  1.0000
  H   H21       1.0  0.84107  0.48570  0.30098  1.0000
  H   H22       1.0  0.64956  0.41190  0.26391  1.0000
  H   H23       1.0  0.59837  0.23984  0.26395  1.0000
  H   H24       1.0  0.77026  0.36048  0.26514  1.0000
  C   C35       1.0  0.48440  0.50507  0.26351  1.0000
  C   C36       1.0  0.50449  0.48176  0.26229  1.0000
  H   H25       1.0  0.50438  0.46725  0.20388  1.0000
  H   H26       1.0  0.47036  0.50675  0.20595  1.0000
  H   H27       1.0  0.54939  0.58073  0.01536  1.0000
  H   H28       1.0  0.50250  0.53548  0.04431  1.0000
  C   C37       1.0  0.50492  0.98136  0.26421  1.0000
  C   C38       1.0  0.52824  0.02479  0.26296  1.0000
  H   H29       1.0  0.54276  0.03919  0.20455  1.0000
  H   H30       1.0  0.50321  0.96561  0.20666  1.0000
  H   H31       1.0  0.42949  0.97079  0.01623  1.0000
  H   H32       1.0  0.47472  0.96916  0.04504  1.0000
  C   C39       1.0  0.02863  0.52549  0.26350  1.0000
  C   C40       1.0  0.98524  0.50549  0.26255  1.0000
  H   H33       1.0  0.97082  0.50560  0.20419  1.0000
  H   H34       1.0  0.04433  0.53948  0.20586  1.0000
  H   H35       1.0  0.03949  0.46054  0.01520  1.0000
  H   H36       1.0  0.04159  0.50763  0.04416  1.0000
  C   C41       1.0  0.45939  0.91563  0.34122  1.0000
  C   C42       1.0  0.41157  0.82719  0.34557  1.0000
  C   C43       1.0  0.39379  0.85167  0.36800  1.0000
  C   C44       1.0  0.41723  0.89507  0.36567  1.0000
  C   C45       1.0  0.38782  0.78425  0.35298  1.0000
  C   C46       1.0  0.40449  0.62211  0.35243  1.0000
  C   C47       1.0  0.46596  0.61623  0.36707  1.0000
  C   C48       1.0  0.46424  0.55060  0.34046  1.0000
  C   C49       1.0  0.48590  0.59281  0.36470  1.0000
  C   C50       1.0  0.22558  0.60502  0.35203  1.0000
  C   C51       1.0  0.16218  0.60778  0.32098  1.0000
  C   C52       1.0  0.09434  0.54553  0.34011  1.0000
  C   C53       1.0  0.11877  0.58783  0.31807  1.0000
  H   H37       1.0  0.40317  0.91162  0.38226  1.0000
  H   H38       1.0  0.36346  0.83807  0.38684  1.0000
  H   H39       1.0  0.17867  0.63874  0.30758  1.0000
  H   H40       1.0  0.48273  0.64661  0.38575  1.0000
  H   H41       1.0  0.51653  0.60692  0.38113  1.0000
  H   H42       1.0  0.10508  0.60484  0.30257  1.0000
  H   H43       1.0  0.41351  0.64224  0.40296  1.0000
  H   H44       1.0  0.36772  0.77310  0.40355  1.0000
  H   H45       1.0  0.23663  0.59575  0.40218  1.0000
  C   C54       1.0  0.55504  0.09234  0.33688  1.0000
  C   C55       1.0  0.60430  0.18041  0.34095  1.0000
  C   C56       1.0  0.62194  0.15580  0.31897  1.0000
  C   C57       1.0  0.59760  0.11244  0.31614  1.0000
  C   C58       1.0  0.62933  0.22300  0.34872  1.0000
  C   C59       1.0  0.60149  0.38071  0.34795  1.0000
  C   C60       1.0  0.54181  0.38815  0.31749  1.0000
  C   C61       1.0  0.54523  0.45501  0.33622  1.0000
  C   C62       1.0  0.52283  0.41250  0.31472  1.0000
  C   C63       1.0  0.78718  0.40895  0.34797  1.0000
  C   C64       1.0  0.84960  0.40382  0.36246  1.0000
  C   C65       1.0  0.91775  0.46494  0.33684  1.0000
  C   C66       1.0  0.89294  0.42284  0.36054  1.0000
  H   H46       1.0  0.61156  0.09557  0.30185  1.0000
  H   H47       1.0  0.65285  0.16924  0.30574  1.0000
  H   H48       1.0  0.83273  0.37357  0.38192  1.0000
  H   H49       1.0  0.52437  0.35727  0.30373  1.0000
  H   H50       1.0  0.49203  0.39854  0.29997  1.0000
  H   H51       1.0  0.90632  0.40570  0.37747  1.0000
  H   H52       1.0  0.58715  0.35622  0.38792  1.0000
  H   H53       1.0  0.65373  0.23320  0.38895  1.0000
  H   H54       1.0  0.77707  0.42350  0.38737  1.0000
  C   C67       1.0  0.52526  0.47902  0.33907  1.0000
  C   C68       1.0  0.52446  0.49965  0.41836  1.0000
  C   C69       1.0  0.50411  0.52318  0.41955  1.0000
  C   C70       1.0  0.48423  0.52656  0.34153  1.0000
  N   N1        1.0  0.50333  0.54108  0.49865  1.0000
  C   C71       1.0  0.52097  0.53822  0.57604  1.0000
  C   C72       1.0  0.54113  0.51499  0.57422  1.0000
  N   N2        1.0  0.54189  0.49667  0.49626  1.0000
  H   H55       1.0  0.55478  0.51147  0.63034  1.0000
  C   C73       1.0  0.51842  0.55854  0.65869  1.0000
  H   H56       1.0  0.50153  0.57489  0.64689  1.0000
  C   C74       1.0  0.53101  0.04833  0.33972  1.0000
  C   C75       1.0  0.51040  0.02691  0.41903  1.0000
  C   C76       1.0  0.48687  0.98300  0.42027  1.0000
  C   C77       1.0  0.48344  0.95969  0.34226  1.0000
  N   N3        1.0  0.46901  0.96432  0.49942  1.0000
  C   C78       1.0  0.47191  0.98486  0.57680  1.0000
  C   C79       1.0  0.49513  0.02828  0.57491  1.0000
  N   N4        1.0  0.51342  0.04737  0.49692  1.0000
  H   H57       1.0  0.49868  0.04549  0.63101  1.0000
  C   C80       1.0  0.45165  0.96200  0.65951  1.0000
  H   H58       1.0  0.43530  0.92872  0.64774  1.0000
  C   C81       1.0  0.96175  0.48484  0.33950  1.0000
  C   C82       1.0  0.98326  0.48565  0.41867  1.0000
  C   C83       1.0  0.02713  0.50584  0.41955  1.0000
  C   C84       1.0  0.05034  0.52563  0.34139  1.0000
  N   N5        1.0  0.04592  0.50660  0.49847  1.0000
  C   C85       1.0  0.02550  0.48908  0.57604  1.0000
  C   C86       1.0  0.98212  0.46912  0.57461  1.0000
  N   N6        1.0  0.96295  0.46838  0.49679  1.0000
  H   H59       1.0  0.96500  0.45557  0.63087  1.0000
  C   C87       1.0  0.04846  0.49155  0.65847  1.0000
  H   H60       1.0  0.08168  0.50827  0.64635  1.0000
