data_image0
_chemical_formula_structural       C6H4C4HC4H2NO2C6HC6H6NOC6SiC12H12C4H4OC6H4C4HC4H2NO2C6HC6H6NOC6SiC12H12C4H4OC6H4C4HC4H2NO2C6HC6H6NOC6SiC12H12C4H4OC6H4C4HC4H2NO2C6HC6H6NOC6SiC12H12C4H4O
_chemical_formula_sum              "C192 H120 N8 O16 Si4"
_cell_length_a       32.793
_cell_length_b       32.7934
_cell_length_c       15.0114
_cell_angle_alpha    90
_cell_angle_beta     90
_cell_angle_gamma    90.0514

_space_group_name_H-M_alt    "P 1"
_space_group_IT_number       1

loop_
  _space_group_symop_operation_xyz
  'x, y, z'

loop_
  _atom_site_type_symbol
  _atom_site_label
  _atom_site_symmetry_multiplicity
  _atom_site_fract_x
  _atom_site_fract_y
  _atom_site_fract_z
  _atom_site_occupancy
  C   C1        1.0  0.09297  0.03117  0.04471  1.0000
  C   C2        1.0  0.10742  0.49331  0.07733  1.0000
  C   C3        1.0  0.08532  0.45786  0.05353  1.0000
  C   C4        1.0  0.40948  0.46824  0.05269  1.0000
  C   C5        1.0  0.39445  0.00656  0.08106  1.0000
  C   C6        1.0  0.41638  0.04178  0.05512  1.0000
  H   H1        1.0  0.10800  0.05772  0.05910  1.0000
  H   H2        1.0  0.09404  0.42987  0.07688  1.0000
  H   H3        1.0  0.39445  0.44190  0.06881  1.0000
  H   H4        1.0  0.40701  0.07009  0.07525  1.0000
  C   C7        1.0  0.98905  0.14392  0.31918  1.0000
  C   C8        1.0  0.99277  0.22732  0.26489  1.0000
  C   C9        1.0  0.02047  0.19855  0.22852  1.0000
  C   C10       1.0  0.01781  0.15713  0.25499  1.0000
  H   H5        1.0  0.53904  0.13701  0.23122  1.0000
  C   C11       1.0  0.00075  0.26991  0.26392  1.0000
  C   C12       1.0  0.00499  0.35337  0.31823  1.0000
  C   C13       1.0  0.47311  0.33929  0.26227  1.0000
  C   C14       1.0  0.47067  0.29807  0.23651  1.0000
  H   H6        1.0  0.44953  0.35819  0.24546  1.0000
  H   H7        1.0  0.44513  0.28812  0.20381  1.0000
  N   N1        1.0  0.05115  0.21218  0.16917  1.0000
  O   O1        1.0  0.54790  0.19507  0.09460  1.0000
  O   O2        1.0  0.08625  0.20534  0.19924  1.0000
  C   C15       1.0  0.35522  0.00971  0.12192  1.0000
  C   C16       1.0  0.34158  0.98145  0.18660  1.0000
  C   C17       1.0  0.30017  0.97926  0.21062  1.0000
  C   C18       1.0  0.27129  0.00573  0.17152  1.0000
  C   C19       1.0  0.28464  0.03558  0.10946  1.0000
  C   C20       1.0  0.32638  0.03740  0.08643  1.0000
  H   H8        1.0  0.33475  0.05692  0.03641  1.0000
  C   C21       1.0  0.22920  0.99582  0.17547  1.0000
  C   C22       1.0  0.20035  0.02407  0.20807  1.0000
  C   C23       1.0  0.15914  0.02127  0.18246  1.0000
  C   C24       1.0  0.14578  0.99067  0.12244  1.0000
  C   C25       1.0  0.17444  0.46077  0.09570  1.0000
  C   C26       1.0  0.21546  0.46315  0.12196  1.0000
  H   H9        1.0  0.20982  0.04907  0.24332  1.0000
  H   H10       1.0  0.13964  0.04380  0.20254  1.0000
  H   H11       1.0  0.16697  0.43933  0.04891  1.0000
  H   H12       1.0  0.36125  0.96034  0.21253  1.0000
  H   H13       1.0  0.23593  0.44375  0.09264  1.0000
  H   H14       1.0  0.29082  0.95629  0.25209  1.0000
  N   N2        1.0  0.25583  0.06063  0.06504  1.0000
  O   O3        1.0  0.26299  0.09783  0.07752  1.0000
  C   C27       1.0  0.50278  0.39178  0.36343  1.0000
  C   C28       1.0  0.46546  0.40585  0.39966  1.0000
  C   C29       1.0  0.46416  0.43960  0.45738  1.0000
  C   C30       1.0  0.50040  0.45945  0.48453  1.0000
  C   C31       1.0  0.03720  0.44778  0.44225  1.0000
  C   C32       1.0  0.03838  0.41447  0.38337  1.0000
  Si  Si1       1.0  0.50007  0.99889  0.55430  1.0000
  C   C33       1.0  0.49799  0.03774  0.48304  1.0000
  C   C34       1.0  0.03349  0.05717  0.45027  1.0000
  C   C35       1.0  0.03066  0.09086  0.39262  1.0000
  C   C36       1.0  0.49237  0.10524  0.36249  1.0000
  C   C37       1.0  0.45726  0.08294  0.38761  1.0000
  C   C38       1.0  0.46005  0.04955  0.44600  1.0000
  C   C39       1.0  0.46176  0.00107  0.62688  1.0000
  C   C40       1.0  0.03995  0.49736  0.62272  1.0000
  C   C41       1.0  0.05923  0.03325  0.65377  1.0000
  C   C42       1.0  0.05210  0.45984  0.66119  1.0000
  C   C43       1.0  0.44317  0.46551  0.66170  1.0000
  C   C44       1.0  0.44963  0.03908  0.66307  1.0000
  H   H15       1.0  0.04996  0.06145  0.63282  1.0000
  H   H16       1.0  0.03772  0.43310  0.64508  1.0000
  H   H17       1.0  0.45245  0.43710  0.64225  1.0000
  H   H18       1.0  0.46356  0.06568  0.64422  1.0000
  H   H19       1.0  0.43352  0.03518  0.46375  1.0000
  H   H20       1.0  0.42898  0.09180  0.36626  1.0000
  H   H21       1.0  0.05693  0.10613  0.37696  1.0000
  H   H22       1.0  0.06191  0.04818  0.47030  1.0000
  H   H23       1.0  0.06409  0.46247  0.45580  1.0000
  H   H24       1.0  0.43632  0.44848  0.48114  1.0000
  H   H25       1.0  0.43885  0.39039  0.38838  1.0000
  H   H26       1.0  0.06596  0.40615  0.35718  1.0000
  C   C45       1.0  0.96027  0.17265  0.35040  1.0000
  C   C46       1.0  0.96198  0.21356  0.32354  1.0000
  C   C47       1.0  0.03431  0.28445  0.31364  1.0000
  C   C48       1.0  0.03636  0.32544  0.34028  1.0000
  H   H27       1.0  0.05528  0.26452  0.33934  1.0000
  H   H28       1.0  0.05886  0.33334  0.38426  1.0000
  H   H29       1.0  0.94009  0.16514  0.39980  1.0000
  H   H30       1.0  0.94307  0.23394  0.35469  1.0000
  O   O4        1.0  0.25497  0.05377  0.64933  1.0000
  C   C49       1.0  0.09297  0.53117  0.04471  1.0000
  C   C50       1.0  0.10742  0.99331  0.07733  1.0000
  C   C51       1.0  0.08532  0.95786  0.05353  1.0000
  C   C52       1.0  0.40948  0.96824  0.05269  1.0000
  C   C53       1.0  0.39445  0.50656  0.08106  1.0000
  C   C54       1.0  0.41638  0.54178  0.05512  1.0000
  H   H31       1.0  0.10800  0.55772  0.05910  1.0000
  H   H32       1.0  0.09404  0.92987  0.07688  1.0000
  H   H33       1.0  0.39445  0.94190  0.06881  1.0000
  H   H34       1.0  0.40701  0.57009  0.07525  1.0000
  C   C55       1.0  0.98905  0.64392  0.31918  1.0000
  C   C56       1.0  0.99277  0.72732  0.26489  1.0000
  C   C57       1.0  0.02047  0.69856  0.22852  1.0000
  C   C58       1.0  0.01781  0.65713  0.25499  1.0000
  H   H35       1.0  0.53903  0.63701  0.23122  1.0000
  C   C59       1.0  0.00075  0.76991  0.26392  1.0000
  C   C60       1.0  0.00499  0.85337  0.31823  1.0000
  C   C61       1.0  0.47311  0.83929  0.26227  1.0000
  C   C62       1.0  0.47067  0.79807  0.23651  1.0000
  H   H36       1.0  0.44953  0.85819  0.24546  1.0000
  H   H37       1.0  0.44513  0.78812  0.20381  1.0000
  N   N3        1.0  0.05115  0.71218  0.16917  1.0000
  O   O5        1.0  0.54790  0.69507  0.09460  1.0000
  O   O6        1.0  0.08625  0.70534  0.19924  1.0000
  C   C63       1.0  0.35522  0.50972  0.12192  1.0000
  C   C64       1.0  0.34159  0.48145  0.18660  1.0000
  C   C65       1.0  0.30017  0.47926  0.21062  1.0000
  C   C66       1.0  0.27129  0.50573  0.17152  1.0000
  C   C67       1.0  0.28464  0.53558  0.10946  1.0000
  C   C68       1.0  0.32638  0.53740  0.08643  1.0000
  H   H38       1.0  0.33475  0.55692  0.03641  1.0000
  C   C69       1.0  0.22920  0.49582  0.17547  1.0000
  C   C70       1.0  0.20035  0.52407  0.20807  1.0000
  C   C71       1.0  0.15914  0.52127  0.18246  1.0000
  C   C72       1.0  0.14578  0.49067  0.12244  1.0000
  C   C73       1.0  0.17444  0.96077  0.09570  1.0000
  C   C74       1.0  0.21546  0.96316  0.12196  1.0000
  H   H39       1.0  0.20982  0.54907  0.24332  1.0000
  H   H40       1.0  0.13964  0.54380  0.20254  1.0000
  H   H41       1.0  0.16697  0.93933  0.04891  1.0000
  H   H42       1.0  0.36125  0.46033  0.21253  1.0000
  H   H43       1.0  0.23593  0.94375  0.09264  1.0000
  H   H44       1.0  0.29082  0.45629  0.25209  1.0000
  N   N4        1.0  0.25583  0.56063  0.06504  1.0000
  O   O7        1.0  0.26299  0.59783  0.07752  1.0000
  C   C75       1.0  0.50278  0.89178  0.36343  1.0000
  C   C76       1.0  0.46546  0.90585  0.39966  1.0000
  C   C77       1.0  0.46416  0.93960  0.45738  1.0000
  C   C78       1.0  0.50040  0.95945  0.48453  1.0000
  C   C79       1.0  0.03720  0.94778  0.44225  1.0000
  C   C80       1.0  0.03838  0.91447  0.38337  1.0000
  Si  Si2       1.0  0.50007  0.49889  0.55430  1.0000
  C   C81       1.0  0.49799  0.53774  0.48304  1.0000
  C   C82       1.0  0.03349  0.55717  0.45027  1.0000
  C   C83       1.0  0.03066  0.59086  0.39262  1.0000
  C   C84       1.0  0.49237  0.60524  0.36249  1.0000
  C   C85       1.0  0.45726  0.58294  0.38761  1.0000
  C   C86       1.0  0.46005  0.54955  0.44600  1.0000
  C   C87       1.0  0.46175  0.50107  0.62688  1.0000
  C   C88       1.0  0.03995  0.99736  0.62272  1.0000
  C   C89       1.0  0.05923  0.53325  0.65377  1.0000
  C   C90       1.0  0.05210  0.95984  0.66119  1.0000
  C   C91       1.0  0.44317  0.96551  0.66170  1.0000
  C   C92       1.0  0.44963  0.53908  0.66307  1.0000
  H   H45       1.0  0.04996  0.56145  0.63282  1.0000
  H   H46       1.0  0.03772  0.93310  0.64508  1.0000
  H   H47       1.0  0.45245  0.93710  0.64225  1.0000
  H   H48       1.0  0.46356  0.56568  0.64422  1.0000
  H   H49       1.0  0.43352  0.53518  0.46375  1.0000
  H   H50       1.0  0.42898  0.59180  0.36626  1.0000
  H   H51       1.0  0.05693  0.60613  0.37696  1.0000
  H   H52       1.0  0.06191  0.54818  0.47030  1.0000
  H   H53       1.0  0.06409  0.96246  0.45580  1.0000
  H   H54       1.0  0.43632  0.94848  0.48114  1.0000
  H   H55       1.0  0.43885  0.89039  0.38838  1.0000
  H   H56       1.0  0.06596  0.90615  0.35718  1.0000
  C   C93       1.0  0.96027  0.67265  0.35040  1.0000
  C   C94       1.0  0.96198  0.71356  0.32354  1.0000
  C   C95       1.0  0.03431  0.78445  0.31364  1.0000
  C   C96       1.0  0.03636  0.82544  0.34028  1.0000
  H   H57       1.0  0.05528  0.76452  0.33934  1.0000
  H   H58       1.0  0.05886  0.83334  0.38426  1.0000
  H   H59       1.0  0.94009  0.66514  0.39980  1.0000
  H   H60       1.0  0.94307  0.73394  0.35469  1.0000
  O   O8        1.0  0.25497  0.55377  0.64933  1.0000
  C   C97       1.0  0.59297  0.03117  0.04471  1.0000
  C   C98       1.0  0.60742  0.49331  0.07733  1.0000
  C   C99       1.0  0.58532  0.45786  0.05353  1.0000
  C   C100      1.0  0.90948  0.46824  0.05269  1.0000
  C   C101      1.0  0.89445  0.00656  0.08106  1.0000
  C   C102      1.0  0.91638  0.04178  0.05512  1.0000
  H   H61       1.0  0.60800  0.05772  0.05910  1.0000
  H   H62       1.0  0.59404  0.42987  0.07688  1.0000
  H   H63       1.0  0.89445  0.44190  0.06881  1.0000
  H   H64       1.0  0.90701  0.07009  0.07525  1.0000
  C   C103      1.0  0.48905  0.14392  0.31918  1.0000
  C   C104      1.0  0.49278  0.22732  0.26489  1.0000
  C   C105      1.0  0.52047  0.19855  0.22852  1.0000
  C   C106      1.0  0.51781  0.15713  0.25499  1.0000
  H   H65       1.0  0.03904  0.13701  0.23122  1.0000
  C   C107      1.0  0.50075  0.26991  0.26392  1.0000
  C   C108      1.0  0.50499  0.35337  0.31823  1.0000
  C   C109      1.0  0.97311  0.33929  0.26227  1.0000
  C   C110      1.0  0.97067  0.29807  0.23651  1.0000
  H   H66       1.0  0.94953  0.35819  0.24546  1.0000
  H   H67       1.0  0.94513  0.28812  0.20381  1.0000
  N   N5        1.0  0.55115  0.21218  0.16917  1.0000
  O   O9        1.0  0.04790  0.19507  0.09460  1.0000
  O   O10       1.0  0.58625  0.20534  0.19924  1.0000
  C   C111      1.0  0.85522  0.00971  0.12192  1.0000
  C   C112      1.0  0.84159  0.98145  0.18660  1.0000
  C   C113      1.0  0.80017  0.97926  0.21062  1.0000
  C   C114      1.0  0.77129  0.00573  0.17152  1.0000
  C   C115      1.0  0.78464  0.03558  0.10946  1.0000
  C   C116      1.0  0.82638  0.03740  0.08643  1.0000
  H   H68       1.0  0.83475  0.05692  0.03641  1.0000
  C   C117      1.0  0.72920  0.99582  0.17547  1.0000
  C   C118      1.0  0.70035  0.02407  0.20807  1.0000
  C   C119      1.0  0.65914  0.02127  0.18246  1.0000
  C   C120      1.0  0.64578  0.99067  0.12244  1.0000
  C   C121      1.0  0.67444  0.46077  0.09570  1.0000
  C   C122      1.0  0.71546  0.46315  0.12196  1.0000
  H   H69       1.0  0.70982  0.04907  0.24332  1.0000
  H   H70       1.0  0.63964  0.04380  0.20254  1.0000
  H   H71       1.0  0.66697  0.43933  0.04891  1.0000
  H   H72       1.0  0.86125  0.96034  0.21253  1.0000
  H   H73       1.0  0.73593  0.44375  0.09264  1.0000
  H   H74       1.0  0.79082  0.95629  0.25209  1.0000
  N   N6        1.0  0.75583  0.06063  0.06504  1.0000
  O   O11       1.0  0.76299  0.09783  0.07752  1.0000
  C   C123      1.0  0.00278  0.39178  0.36343  1.0000
  C   C124      1.0  0.96546  0.40585  0.39966  1.0000
  C   C125      1.0  0.96416  0.43960  0.45738  1.0000
  C   C126      1.0  0.00040  0.45945  0.48453  1.0000
  C   C127      1.0  0.53720  0.44778  0.44225  1.0000
  C   C128      1.0  0.53838  0.41447  0.38337  1.0000
  Si  Si3       1.0  0.00006  0.99889  0.55430  1.0000
  C   C129      1.0  0.99799  0.03774  0.48304  1.0000
  C   C130      1.0  0.53349  0.05717  0.45027  1.0000
  C   C131      1.0  0.53066  0.09086  0.39262  1.0000
  C   C132      1.0  0.99237  0.10524  0.36249  1.0000
  C   C133      1.0  0.95726  0.08294  0.38761  1.0000
  C   C134      1.0  0.96005  0.04955  0.44600  1.0000
  C   C135      1.0  0.96175  0.00107  0.62688  1.0000
  C   C136      1.0  0.53995  0.49736  0.62272  1.0000
  C   C137      1.0  0.55922  0.03325  0.65377  1.0000
  C   C138      1.0  0.55210  0.45984  0.66119  1.0000
  C   C139      1.0  0.94318  0.46551  0.66170  1.0000
  C   C140      1.0  0.94963  0.03908  0.66307  1.0000
  H   H75       1.0  0.54996  0.06145  0.63282  1.0000
  H   H76       1.0  0.53772  0.43310  0.64508  1.0000
  H   H77       1.0  0.95244  0.43710  0.64225  1.0000
  H   H78       1.0  0.96356  0.06568  0.64422  1.0000
  H   H79       1.0  0.93352  0.03518  0.46375  1.0000
  H   H80       1.0  0.92898  0.09180  0.36626  1.0000
  H   H81       1.0  0.55694  0.10613  0.37696  1.0000
  H   H82       1.0  0.56191  0.04818  0.47030  1.0000
  H   H83       1.0  0.56408  0.46247  0.45580  1.0000
  H   H84       1.0  0.93632  0.44848  0.48114  1.0000
  H   H85       1.0  0.93885  0.39039  0.38838  1.0000
  H   H86       1.0  0.56596  0.40615  0.35718  1.0000
  C   C141      1.0  0.46027  0.17265  0.35040  1.0000
  C   C142      1.0  0.46198  0.21356  0.32354  1.0000
  C   C143      1.0  0.53431  0.28445  0.31364  1.0000
  C   C144      1.0  0.53636  0.32544  0.34028  1.0000
  H   H87       1.0  0.55528  0.26452  0.33934  1.0000
  H   H88       1.0  0.55886  0.33334  0.38426  1.0000
  H   H89       1.0  0.44009  0.16514  0.39980  1.0000
  H   H90       1.0  0.44307  0.23394  0.35469  1.0000
  O   O12       1.0  0.75497  0.05377  0.64933  1.0000
  C   C145      1.0  0.59297  0.53117  0.04471  1.0000
  C   C146      1.0  0.60742  0.99331  0.07733  1.0000
  C   C147      1.0  0.58532  0.95786  0.05353  1.0000
  C   C148      1.0  0.90948  0.96824  0.05269  1.0000
  C   C149      1.0  0.89445  0.50656  0.08106  1.0000
  C   C150      1.0  0.91638  0.54178  0.05512  1.0000
  H   H91       1.0  0.60800  0.55772  0.05910  1.0000
  H   H92       1.0  0.59404  0.92987  0.07688  1.0000
  H   H93       1.0  0.89445  0.94190  0.06881  1.0000
  H   H94       1.0  0.90701  0.57009  0.07525  1.0000
  C   C151      1.0  0.48905  0.64392  0.31918  1.0000
  C   C152      1.0  0.49278  0.72732  0.26489  1.0000
  C   C153      1.0  0.52047  0.69856  0.22852  1.0000
  C   C154      1.0  0.51781  0.65713  0.25499  1.0000
  H   H95       1.0  0.03904  0.63701  0.23122  1.0000
  C   C155      1.0  0.50074  0.76991  0.26392  1.0000
  C   C156      1.0  0.50499  0.85337  0.31823  1.0000
  C   C157      1.0  0.97311  0.83929  0.26227  1.0000
  C   C158      1.0  0.97067  0.79807  0.23651  1.0000
  H   H96       1.0  0.94953  0.85819  0.24546  1.0000
  H   H97       1.0  0.94513  0.78812  0.20381  1.0000
  N   N7        1.0  0.55115  0.71218  0.16917  1.0000
  O   O13       1.0  0.04790  0.69507  0.09460  1.0000
  O   O14       1.0  0.58625  0.70534  0.19924  1.0000
  C   C159      1.0  0.85522  0.50972  0.12192  1.0000
  C   C160      1.0  0.84159  0.48145  0.18660  1.0000
  C   C161      1.0  0.80017  0.47926  0.21062  1.0000
  C   C162      1.0  0.77129  0.50573  0.17152  1.0000
  C   C163      1.0  0.78464  0.53558  0.10946  1.0000
  C   C164      1.0  0.82638  0.53740  0.08643  1.0000
  H   H98       1.0  0.83475  0.55692  0.03641  1.0000
  C   C165      1.0  0.72920  0.49582  0.17547  1.0000
  C   C166      1.0  0.70035  0.52407  0.20807  1.0000
  C   C167      1.0  0.65914  0.52127  0.18246  1.0000
  C   C168      1.0  0.64578  0.49067  0.12244  1.0000
  C   C169      1.0  0.67444  0.96077  0.09570  1.0000
  C   C170      1.0  0.71546  0.96316  0.12196  1.0000
  H   H99       1.0  0.70982  0.54907  0.24332  1.0000
  H   H100      1.0  0.63964  0.54380  0.20254  1.0000
  H   H101      1.0  0.66697  0.93933  0.04891  1.0000
  H   H102      1.0  0.86125  0.46033  0.21253  1.0000
  H   H103      1.0  0.73593  0.94375  0.09264  1.0000
  H   H104      1.0  0.79082  0.45629  0.25209  1.0000
  N   N8        1.0  0.75583  0.56063  0.06504  1.0000
  O   O15       1.0  0.76299  0.59783  0.07752  1.0000
  C   C171      1.0  0.00278  0.89178  0.36343  1.0000
  C   C172      1.0  0.96546  0.90585  0.39966  1.0000
  C   C173      1.0  0.96416  0.93960  0.45738  1.0000
  C   C174      1.0  0.00040  0.95945  0.48453  1.0000
  C   C175      1.0  0.53720  0.94778  0.44225  1.0000
  C   C176      1.0  0.53838  0.91447  0.38337  1.0000
  Si  Si4       1.0  0.00006  0.49889  0.55430  1.0000
  C   C177      1.0  0.99799  0.53774  0.48304  1.0000
  C   C178      1.0  0.53349  0.55717  0.45027  1.0000
  C   C179      1.0  0.53066  0.59086  0.39262  1.0000
  C   C180      1.0  0.99237  0.60524  0.36249  1.0000
  C   C181      1.0  0.95726  0.58294  0.38761  1.0000
  C   C182      1.0  0.96005  0.54955  0.44600  1.0000
  C   C183      1.0  0.96176  0.50107  0.62688  1.0000
  C   C184      1.0  0.53995  0.99736  0.62272  1.0000
  C   C185      1.0  0.55922  0.53325  0.65377  1.0000
  C   C186      1.0  0.55210  0.95984  0.66119  1.0000
  C   C187      1.0  0.94317  0.96551  0.66170  1.0000
  C   C188      1.0  0.94963  0.53908  0.66307  1.0000
  H   H105      1.0  0.54996  0.56145  0.63282  1.0000
  H   H106      1.0  0.53772  0.93310  0.64508  1.0000
  H   H107      1.0  0.95245  0.93710  0.64225  1.0000
  H   H108      1.0  0.96356  0.56568  0.64422  1.0000
  H   H109      1.0  0.93352  0.53518  0.46375  1.0000
  H   H110      1.0  0.92898  0.59180  0.36626  1.0000
  H   H111      1.0  0.55693  0.60613  0.37696  1.0000
  H   H112      1.0  0.56191  0.54818  0.47030  1.0000
  H   H113      1.0  0.56408  0.96246  0.45580  1.0000
  H   H114      1.0  0.93632  0.94848  0.48114  1.0000
  H   H115      1.0  0.93885  0.89039  0.38838  1.0000
  H   H116      1.0  0.56596  0.90615  0.35718  1.0000
  C   C189      1.0  0.46027  0.67265  0.35040  1.0000
  C   C190      1.0  0.46198  0.71356  0.32354  1.0000
  C   C191      1.0  0.53431  0.78445  0.31364  1.0000
  C   C192      1.0  0.53636  0.82544  0.34028  1.0000
  H   H117      1.0  0.55528  0.76452  0.33934  1.0000
  H   H118      1.0  0.55886  0.83334  0.38426  1.0000
  H   H119      1.0  0.44009  0.66514  0.39980  1.0000
  H   H120      1.0  0.44308  0.73394  0.35469  1.0000
  O   O16       1.0  0.75497  0.55377  0.64933  1.0000
