data_image0
_chemical_formula_structural       C4H2ONHC5H2CH3CNCHNCH2C2NC2OC2NC2HOCNC2NC3H3OC2NC3H3ONCH2NCH2NCHNCHC6H3C6H3C6H3C6H3C6H3CHNCHNCHC2NC3H3OCHC2NC3H2OC2NC3H3OC2NC3H3O
_chemical_formula_sum              "C90 H54 O9 N18"
_cell_length_a       30.2357
_cell_length_b       30.2357
_cell_length_c       14.6874
_cell_angle_alpha    90
_cell_angle_beta     90
_cell_angle_gamma    120

_space_group_name_H-M_alt    "P 1"
_space_group_IT_number       1

loop_
  _space_group_symop_operation_xyz
  'x, y, z'

loop_
  _atom_site_type_symbol
  _atom_site_label
  _atom_site_symmetry_multiplicity
  _atom_site_fract_x
  _atom_site_fract_y
  _atom_site_fract_z
  _atom_site_occupancy
  C   C1        1.0  0.07443  0.54317  0.30692  1.0000
  C   C2        1.0  0.04315  0.49745  0.25710  1.0000
  C   C3        1.0  0.06305  0.47602  0.19825  1.0000
  C   C4        1.0  0.07835  0.49867  0.10843  1.0000
  H   H1        1.0  0.10300  0.54007  0.11291  1.0000
  H   H2        1.0  0.04484  0.49025  0.06755  1.0000
  O   O1        1.0  0.04313  0.42945  0.20046  1.0000
  N   N1        1.0  0.04884  0.56075  0.35802  1.0000
  H   H3        1.0  0.09978  0.48345  0.07346  1.0000
  C   C5        1.0  0.20739  0.56763  0.36105  1.0000
  C   C6        1.0  0.20828  0.65036  0.35705  1.0000
  C   C7        1.0  0.15724  0.62409  0.32532  1.0000
  C   C8        1.0  0.12937  0.56981  0.31611  1.0000
  C   C9        1.0  0.15630  0.54277  0.32962  1.0000
  H   H4        1.0  0.13894  0.64451  0.31597  1.0000
  H   H5        1.0  0.13715  0.50377  0.32675  1.0000
  C   C10       1.0  0.21248  0.54036  0.59041  1.0000
  H   H6        1.0  0.17870  0.53427  0.55303  1.0000
  H   H7        1.0  0.21264  0.55738  0.65616  1.0000
  H   H8        1.0  0.20964  0.50342  0.60293  1.0000
  C   C11       1.0  0.23173  0.62094  0.37496  1.0000
  N   N2        1.0  0.25193  0.52733  0.30446  1.0000
  C   C12       1.0  0.29500  0.52328  0.30096  1.0000
  H   H9        1.0  0.30591  0.51625  0.23932  1.0000
  N   N3        1.0  0.30195  0.78340  0.31082  1.0000
  C   C13       1.0  0.25498  0.74052  0.30252  1.0000
  H   H10       1.0  0.23827  0.73115  0.23968  1.0000
  H   H11       1.0  0.26968  0.63982  0.39247  1.0000
  C   C14       1.0  0.23623  0.54315  0.37874  1.0000
  C   C15       1.0  0.33019  0.54406  0.37364  1.0000
  N   N4        1.0  0.31371  0.55837  0.44810  1.0000
  C   C16       1.0  0.26795  0.55592  0.45726  1.0000
  C   C17       1.0  0.25822  0.57304  0.53850  1.0000
  O   O2        1.0  0.29318  0.61012  0.57647  1.0000
  C   C18       1.0  0.33157  0.79683  0.38743  1.0000
  C   C19       1.0  0.23806  0.70371  0.37285  1.0000
  N   N5        1.0  0.26704  0.71821  0.44967  1.0000
  C   C20       1.0  0.31041  0.76341  0.46343  1.0000
  C   C21       1.0  0.33459  0.77100  0.54714  1.0000
  H   H12       1.0  0.31303  0.81920  0.61131  1.0000
  O   O3        1.0  0.33556  0.73502  0.58345  1.0000
  C   C22       1.0  0.96570  0.49280  0.31582  1.0000
  N   N6        1.0  0.99111  0.47483  0.26496  1.0000
  C   C23       1.0  0.49188  0.54118  0.30957  1.0000
  C   C24       1.0  0.54911  0.48937  0.31362  1.0000
  N   N7        1.0  0.50623  0.47306  0.26199  1.0000
  C   C25       1.0  0.47738  0.49643  0.25655  1.0000
  C   C26       1.0  0.43691  0.47696  0.19589  1.0000
  C   C27       1.0  0.44624  0.50118  0.10720  1.0000
  H   H13       1.0  0.41024  0.48749  0.07065  1.0000
  H   H14       1.0  0.47125  0.49247  0.06672  1.0000
  H   H15       1.0  0.46396  0.54260  0.11377  1.0000
  O   O4        1.0  0.40923  0.43049  0.19563  1.0000
  C   C28       1.0  0.49310  0.95841  0.30969  1.0000
  C   C29       1.0  0.55085  0.06748  0.30917  1.0000
  N   N8        1.0  0.50663  0.04034  0.26117  1.0000
  C   C30       1.0  0.47747  0.98818  0.25803  1.0000
  C   C31       1.0  0.43545  0.96735  0.20098  1.0000
  C   C32       1.0  0.43392  0.93995  0.11897  1.0000
  H   H16       1.0  0.46459  0.93079  0.11682  1.0000
  H   H17       1.0  0.43738  0.96282  0.05902  1.0000
  H   H18       1.0  0.39753  0.90422  0.11575  1.0000
  O   O5        1.0  0.40575  0.98365  0.20641  1.0000
  N   N9        1.0  0.50798  0.73376  0.31554  1.0000
  C   C33       1.0  0.51209  0.78093  0.31193  1.0000
  H   H19       1.0  0.51975  0.79921  0.25058  1.0000
  H   H20       1.0  0.36162  0.81372  0.00174  1.0000
  N   N10       1.0  0.78941  0.50552  0.32273  1.0000
  C   C34       1.0  0.74599  0.50872  0.31562  1.0000
  H   H21       1.0  0.73747  0.51818  0.25389  1.0000
  H   H22       1.0  0.81591  0.46376  0.00779  1.0000
  N   N11       1.0  0.53805  0.29778  0.28241  1.0000
  C   C35       1.0  0.53475  0.25118  0.27311  1.0000
  H   H23       1.0  0.53186  0.23683  0.20902  1.0000
  N   N12       1.0  0.74315  0.25127  0.29499  1.0000
  C   C36       1.0  0.78998  0.29478  0.29609  1.0000
  H   H24       1.0  0.80978  0.30728  0.23637  1.0000
  C   C37       1.0  0.46688  0.64850  0.37076  1.0000
  C   C38       1.0  0.41351  0.61944  0.38381  1.0000
  C   C39       1.0  0.38386  0.56704  0.36216  1.0000
  C   C40       1.0  0.40997  0.54244  0.32869  1.0000
  C   C41       1.0  0.46430  0.56854  0.32091  1.0000
  C   C42       1.0  0.49139  0.62238  0.33688  1.0000
  H   H25       1.0  0.38932  0.50373  0.32044  1.0000
  H   H26       1.0  0.53031  0.64240  0.33056  1.0000
  H   H27       1.0  0.39469  0.63848  0.40185  1.0000
  C   C43       1.0  0.38537  0.82674  0.37481  1.0000
  C   C44       1.0  0.41479  0.80318  0.39216  1.0000
  C   C45       1.0  0.46724  0.82574  0.37075  1.0000
  C   C46       1.0  0.49145  0.87590  0.33451  1.0000
  C   C47       1.0  0.46505  0.90371  0.32382  1.0000
  C   C48       1.0  0.41120  0.87684  0.33857  1.0000
  H   H28       1.0  0.52992  0.89377  0.32250  1.0000
  H   H29       1.0  0.39100  0.89550  0.33245  1.0000
  H   H30       1.0  0.39579  0.76546  0.41096  1.0000
  C   C49       1.0  0.83267  0.46408  0.37922  1.0000
  C   C50       1.0  0.80971  0.41071  0.39028  1.0000
  C   C51       1.0  0.83316  0.38222  0.36444  1.0000
  C   C52       1.0  0.88368  0.40998  0.32985  1.0000
  C   C53       1.0  0.91097  0.46448  0.32720  1.0000
  C   C54       1.0  0.88302  0.49011  0.34459  1.0000
  H   H31       1.0  0.90238  0.39037  0.31612  1.0000
  H   H32       1.0  0.90062  0.52898  0.33841  1.0000
  H   H33       1.0  0.77175  0.39097  0.40734  1.0000
  C   C55       1.0  0.57265  0.37893  0.35426  1.0000
  C   C56       1.0  0.62520  0.40752  0.37583  1.0000
  C   C57       1.0  0.65490  0.46094  0.36419  1.0000
  C   C58       1.0  0.62965  0.48689  0.33387  1.0000
  C   C59       1.0  0.57570  0.46101  0.32087  1.0000
  C   C60       1.0  0.54873  0.40650  0.32408  1.0000
  H   H34       1.0  0.65047  0.52584  0.32875  1.0000
  H   H35       1.0  0.51007  0.38681  0.31383  1.0000
  H   H36       1.0  0.64379  0.38800  0.39209  1.0000
  C   C61       1.0  0.65708  0.20410  0.34595  1.0000
  C   C62       1.0  0.62739  0.22814  0.35198  1.0000
  C   C63       1.0  0.57432  0.20256  0.33472  1.0000
  C   C64       1.0  0.55007  0.14976  0.31343  1.0000
  C   C65       1.0  0.57747  0.12262  0.31305  1.0000
  C   C66       1.0  0.63153  0.15144  0.32467  1.0000
  H   H37       1.0  0.51116  0.13005  0.30677  1.0000
  H   H38       1.0  0.65250  0.13337  0.32344  1.0000
  H   H39       1.0  0.64571  0.26661  0.36542  1.0000
  C   C67       1.0  0.99727  0.53863  0.36363  1.0000
  H   H40       1.0  0.98244  0.55431  0.40692  1.0000
  N   N13       1.0  0.53458  0.55698  0.36143  1.0000
  C   C68       1.0  0.56348  0.53418  0.36486  1.0000
  H   H41       1.0  0.59373  0.54857  0.40873  1.0000
  N   N14       1.0  0.53722  0.98572  0.35781  1.0000
  C   C69       1.0  0.56641  0.03749  0.35888  1.0000
  H   H42       1.0  0.59789  0.05377  0.39988  1.0000
  C   C70       1.0  0.49116  0.70182  0.38927  1.0000
  C   C71       1.0  0.48991  0.79477  0.38324  1.0000
  N   N15       1.0  0.47504  0.76371  0.45739  1.0000
  C   C72       1.0  0.47767  0.72052  0.46726  1.0000
  C   C73       1.0  0.45948  0.69348  0.54810  1.0000
  C   C74       1.0  0.49033  0.67841  0.60082  1.0000
  H   H43       1.0  0.49582  0.65041  0.56320  1.0000
  H   H44       1.0  0.47215  0.66122  0.66572  1.0000
  H   H45       1.0  0.52762  0.71165  0.61511  1.0000
  O   O6        1.0  0.42144  0.69058  0.58352  1.0000
  C   C75       1.0  0.34699  0.81578  0.60143  1.0000
  H   H46       1.0  0.37622  0.85008  0.56739  1.0000
  C   C76       1.0  0.80213  0.48677  0.39677  1.0000
  C   C77       1.0  0.70788  0.48412  0.38279  1.0000
  N   N16       1.0  0.72152  0.46728  0.45748  1.0000
  C   C78       1.0  0.76734  0.47056  0.47130  1.0000
  C   C79       1.0  0.77445  0.45118  0.55234  1.0000
  C   C80       1.0  0.81822  0.48253  0.60960  1.0000
  H   H47       1.0  0.85330  0.48981  0.57553  1.0000
  H   H48       1.0  0.82037  0.51900  0.62395  1.0000
  O   O7        1.0  0.73831  0.41315  0.58578  1.0000
  C   C81       1.0  0.54878  0.32480  0.36180  1.0000
  C   C82       1.0  0.54918  0.23114  0.34708  1.0000
  N   N17       1.0  0.56010  0.25852  0.42557  1.0000
  C   C83       1.0  0.55774  0.30172  0.43896  1.0000
  C   C84       1.0  0.57090  0.32410  0.52457  1.0000
  C   C85       1.0  0.53585  0.33410  0.57578  1.0000
  H   H49       1.0  0.53070  0.36324  0.54157  1.0000
  H   H50       1.0  0.55018  0.34778  0.64439  1.0000
  H   H51       1.0  0.49880  0.29926  0.58173  1.0000
  O   O8        1.0  0.60751  0.32598  0.56398  1.0000
  C   C86       1.0  0.70995  0.23359  0.36681  1.0000
  C   C87       1.0  0.80241  0.32819  0.37118  1.0000
  N   N18       1.0  0.76957  0.30963  0.44285  1.0000
  C   C88       1.0  0.72610  0.26373  0.44735  1.0000
  C   C89       1.0  0.69657  0.25251  0.52556  1.0000
  C   C90       1.0  0.68513  0.20768  0.57889  1.0000
  H   H52       1.0  0.66037  0.17316  0.54027  1.0000
  H   H53       1.0  0.66551  0.20638  0.64222  1.0000
  H   H54       1.0  0.72028  0.20774  0.59615  1.0000
  O   O9        1.0  0.69215  0.28656  0.56192  1.0000
