data_image0
_chemical_formula_structural       C4HCNHNH2C4HCNHNH2C4HCNHNH2CNC4H2NH2CNC4H2NH2CNC4H2NH2C6H3C6H3C6H3C6H3CNC4H2NH2CNC4H2NH2CNC4H2NH2C4HCNHNH2C4HCNHNH2C4HCNHNH2
_chemical_formula_sum              "C84 H60 N24"
_cell_length_a       34.2149
_cell_length_b       34.2253
_cell_length_c       14.7174
_cell_angle_alpha    90
_cell_angle_beta     90
_cell_angle_gamma    119.993

_space_group_name_H-M_alt    "P 1"
_space_group_IT_number       1

loop_
  _space_group_symop_operation_xyz
  'x, y, z'

loop_
  _atom_site_type_symbol
  _atom_site_label
  _atom_site_symmetry_multiplicity
  _atom_site_fract_x
  _atom_site_fract_y
  _atom_site_fract_z
  _atom_site_occupancy
  C   C1        1.0  0.10748  0.05628  0.34843  1.0000
  C   C2        1.0  0.20321  0.10372  0.34773  1.0000
  C   C3        1.0  0.17965  0.07085  0.27923  1.0000
  C   C4        1.0  0.13178  0.04743  0.28159  1.0000
  H   H1        1.0  0.11422  0.02357  0.23307  1.0000
  C   C5        1.0  0.32083  0.18466  0.29170  1.0000
  N   N1        1.0  0.27505  0.16000  0.29328  1.0000
  H   H2        1.0  0.33595  0.20763  0.24067  1.0000
  N   N2        1.0  0.20100  0.06046  0.21371  1.0000
  H   H3        1.0  0.18411  0.03762  0.16806  1.0000
  H   H4        1.0  0.23373  0.07518  0.21067  1.0000
  C   C6        1.0  0.96234  0.05571  0.34832  1.0000
  C   C7        1.0  0.91497  0.10407  0.34772  1.0000
  C   C8        1.0  0.94848  0.11401  0.28032  1.0000
  C   C9        1.0  0.97182  0.08949  0.28258  1.0000
  H   H5        1.0  0.99610  0.09621  0.23476  1.0000
  C   C10       1.0  0.83419  0.14092  0.29153  1.0000
  N   N3        1.0  0.85878  0.11974  0.29316  1.0000
  H   H6        1.0  0.81129  0.13318  0.24039  1.0000
  N   N4        1.0  0.95948  0.14635  0.21589  1.0000
  H   H7        1.0  0.98277  0.15275  0.17100  1.0000
  H   H8        1.0  0.94479  0.16439  0.21298  1.0000
  C   C11       1.0  0.96295  0.91115  0.34827  1.0000
  C   C12       1.0  0.91460  0.81544  0.34774  1.0000
  C   C13       1.0  0.90496  0.83899  0.27978  1.0000
  C   C14       1.0  0.92945  0.88684  0.28203  1.0000
  H   H9        1.0  0.92292  0.90439  0.23387  1.0000
  C   C15       1.0  0.87782  0.69783  0.29162  1.0000
  N   N5        1.0  0.89898  0.74360  0.29323  1.0000
  H   H10       1.0  0.88565  0.68270  0.24057  1.0000
  N   N6        1.0  0.87288  0.81764  0.21486  1.0000
  H   H11       1.0  0.86670  0.83452  0.16957  1.0000
  H   H12       1.0  0.85486  0.78492  0.21191  1.0000
  C   C16       1.0  0.49990  0.15745  0.30425  1.0000
  N   N7        1.0  0.53727  0.15325  0.30009  1.0000
  C   C17       1.0  0.61098  0.16882  0.34244  1.0000
  C   C18       1.0  0.63770  0.18980  0.26378  1.0000
  C   C19       1.0  0.68059  0.19309  0.25806  1.0000
  C   C20       1.0  0.69790  0.17822  0.32894  1.0000
  H   H13       1.0  0.70174  0.21131  0.20595  1.0000
  H   H14       1.0  0.47881  0.14770  0.24937  1.0000
  N   N8        1.0  0.62620  0.21010  0.19771  1.0000
  H   H15       1.0  0.59915  0.21241  0.20144  1.0000
  H   H16       1.0  0.64621  0.22541  0.14676  1.0000
  C   C21       1.0  0.86152  0.34717  0.30460  1.0000
  N   N9        1.0  0.86569  0.38871  0.30042  1.0000
  C   C22       1.0  0.85022  0.44690  0.34279  1.0000
  C   C23       1.0  0.82914  0.45257  0.26422  1.0000
  C   C24       1.0  0.82583  0.49215  0.25847  1.0000
  C   C25       1.0  0.84076  0.52436  0.32933  1.0000
  H   H17       1.0  0.80744  0.49501  0.20660  1.0000
  H   H18       1.0  0.87105  0.33580  0.24944  1.0000
  N   N10       1.0  0.80863  0.42069  0.19841  1.0000
  H   H19       1.0  0.80648  0.39139  0.20195  1.0000
  H   H20       1.0  0.79341  0.42540  0.14732  1.0000
  C   C26       1.0  0.67166  0.51901  0.30480  1.0000
  N   N11       1.0  0.63011  0.48164  0.30050  1.0000
  C   C27       1.0  0.57187  0.40794  0.34252  1.0000
  C   C28       1.0  0.56613  0.38128  0.26378  1.0000
  C   C29       1.0  0.52654  0.33841  0.25804  1.0000
  C   C30       1.0  0.49437  0.32102  0.32895  1.0000
  H   H21       1.0  0.52366  0.31721  0.20608  1.0000
  H   H22       1.0  0.68303  0.53999  0.24977  1.0000
  N   N12       1.0  0.59796  0.39273  0.19781  1.0000
  H   H23       1.0  0.62726  0.41988  0.20131  1.0000
  H   H24       1.0  0.59319  0.37285  0.14660  1.0000
  C   C31       1.0  0.05917  0.03198  0.35058  1.0000
  C   C32       1.0  0.03446  0.05505  0.35075  1.0000
  C   C33       1.0  0.98663  0.03167  0.35049  1.0000
  C   C34       1.0  0.96357  0.98389  0.35052  1.0000
  C   C35       1.0  0.98697  0.95946  0.35042  1.0000
  C   C36       1.0  0.03476  0.98417  0.35059  1.0000
  H   H25       1.0  0.92902  0.96652  0.34982  1.0000
  H   H26       1.0  0.05214  0.96701  0.34989  1.0000
  H   H27       1.0  0.05165  0.08959  0.35024  1.0000
  C   C37       1.0  0.46777  0.20220  0.36568  1.0000
  C   C38       1.0  0.49063  0.24930  0.35246  1.0000
  C   C39       1.0  0.46753  0.27339  0.34014  1.0000
  C   C40       1.0  0.41983  0.24925  0.34279  1.0000
  C   C41       1.0  0.39531  0.20161  0.35464  1.0000
  C   C42       1.0  0.42008  0.17863  0.36494  1.0000
  H   H28       1.0  0.40292  0.26670  0.33609  1.0000
  H   H29       1.0  0.40336  0.14433  0.37263  1.0000
  H   H30       1.0  0.52527  0.26663  0.35187  1.0000
  C   C43       1.0  0.81678  0.27037  0.36574  1.0000
  C   C44       1.0  0.76967  0.24616  0.35254  1.0000
  C   C45       1.0  0.74555  0.19899  0.34002  1.0000
  C   C46       1.0  0.76968  0.17542  0.34257  1.0000
  C   C47       1.0  0.81733  0.19850  0.35447  1.0000
  C   C48       1.0  0.84033  0.24623  0.36492  1.0000
  H   H31       1.0  0.75220  0.14107  0.33582  1.0000
  H   H32       1.0  0.87464  0.26378  0.37271  1.0000
  H   H33       1.0  0.75234  0.26347  0.35211  1.0000
  C   C49       1.0  0.74848  0.55096  0.36602  1.0000
  C   C50       1.0  0.77274  0.52811  0.35287  1.0000
  C   C51       1.0  0.81992  0.55119  0.34031  1.0000
  C   C52       1.0  0.84345  0.59888  0.34283  1.0000
  C   C53       1.0  0.82033  0.62340  0.35468  1.0000
  C   C54       1.0  0.77258  0.59864  0.36511  1.0000
  H   H34       1.0  0.87782  0.61578  0.33609  1.0000
  H   H35       1.0  0.75500  0.61536  0.37281  1.0000
  H   H36       1.0  0.75546  0.49348  0.35247  1.0000
  C   C55       1.0  0.13318  0.08998  0.41308  1.0000
  N   N13       1.0  0.17898  0.11153  0.41113  1.0000
  C   C56       1.0  0.25096  0.12777  0.35637  1.0000
  C   C57       1.0  0.27468  0.11872  0.42494  1.0000
  C   C58       1.0  0.32254  0.14387  0.42330  1.0000
  C   C59       1.0  0.34685  0.17723  0.35671  1.0000
  H   H37       1.0  0.34008  0.13785  0.47232  1.0000
  H   H38       1.0  0.11783  0.09765  0.46394  1.0000
  N   N14       1.0  0.25351  0.08656  0.48979  1.0000
  H   H39       1.0  0.22083  0.06797  0.49208  1.0000
  H   H40       1.0  0.27053  0.08069  0.53533  1.0000
  C   C60       1.0  0.92804  0.04716  0.41193  1.0000
  N   N15       1.0  0.90655  0.07145  0.41009  1.0000
  C   C61       1.0  0.89093  0.12777  0.35641  1.0000
  C   C62       1.0  0.90001  0.16052  0.42497  1.0000
  C   C63       1.0  0.87496  0.18333  0.42325  1.0000
  C   C64       1.0  0.84166  0.17438  0.35656  1.0000
  H   H41       1.0  0.88101  0.20688  0.47229  1.0000
  H   H42       1.0  0.91990  0.02369  0.46204  1.0000
  N   N16       1.0  0.93210  0.17137  0.48994  1.0000
  H   H43       1.0  0.95055  0.15714  0.49240  1.0000
  H   H44       1.0  0.93799  0.19425  0.53554  1.0000
  C   C65       1.0  0.97125  0.88544  0.41241  1.0000
  N   N17       1.0  0.94697  0.83966  0.41057  1.0000
  C   C66       1.0  0.89091  0.76771  0.35643  1.0000
  C   C67       1.0  0.85817  0.74402  0.42502  1.0000
  C   C68       1.0  0.83542  0.69618  0.42337  1.0000
  C   C69       1.0  0.84441  0.67185  0.35671  1.0000
  H   H45       1.0  0.81188  0.67866  0.47242  1.0000
  H   H46       1.0  0.99452  0.90079  0.46287  1.0000
  N   N18       1.0  0.84726  0.76522  0.48996  1.0000
  H   H47       1.0  0.86142  0.79790  0.49233  1.0000
  H   H48       1.0  0.82439  0.74823  0.53556  1.0000
  C   C70       1.0  0.49461  0.18138  0.37661  1.0000
  C   C71       1.0  0.57072  0.16959  0.36359  1.0000
  C   C72       1.0  0.56633  0.19226  0.44088  1.0000
  C   C73       1.0  0.52744  0.19678  0.44636  1.0000
  H   H49       1.0  0.52535  0.21599  0.49747  1.0000
  C   C74       1.0  0.66905  0.15600  0.40286  1.0000
  N   N19       1.0  0.62794  0.15287  0.40709  1.0000
  H   H50       1.0  0.68037  0.14678  0.45856  1.0000
  N   N20       1.0  0.59876  0.21299  0.50563  1.0000
  H   H51       1.0  0.59491  0.22931  0.55575  1.0000
  H   H52       1.0  0.62769  0.21435  0.50195  1.0000
  C   C75       1.0  0.83758  0.31799  0.37703  1.0000
  C   C76       1.0  0.84949  0.40591  0.36405  1.0000
  C   C77       1.0  0.82690  0.37890  0.44143  1.0000
  C   C78       1.0  0.82230  0.33546  0.44686  1.0000
  H   H53       1.0  0.80309  0.31418  0.49796  1.0000
  C   C79       1.0  0.86317  0.51785  0.40305  1.0000
  N   N21       1.0  0.86627  0.47986  0.40731  1.0000
  H   H54       1.0  0.87235  0.53840  0.45872  1.0000
  N   N22       1.0  0.80623  0.39064  0.50625  1.0000
  H   H55       1.0  0.79000  0.37051  0.55651  1.0000
  H   H56       1.0  0.80498  0.41826  0.50273  1.0000
  C   C80       1.0  0.70083  0.52410  0.37714  1.0000
  C   C81       1.0  0.61292  0.44813  0.36386  1.0000
  C   C82       1.0  0.63995  0.45243  0.44117  1.0000
  C   C83       1.0  0.68337  0.49131  0.44687  1.0000
  H   H57       1.0  0.70464  0.49325  0.49788  1.0000
  C   C84       1.0  0.50093  0.34990  0.40282  1.0000
  N   N23       1.0  0.53897  0.39094  0.40718  1.0000
  H   H58       1.0  0.48058  0.33848  0.45877  1.0000
  N   N24       1.0  0.62818  0.41994  0.50580  1.0000
  H   H59       1.0  0.64838  0.42368  0.55579  1.0000
  H   H60       1.0  0.60069  0.39097  0.50177  1.0000
