data_image0
_chemical_formula_structural       C16H20C16H20C16H20C3H2NHC3H2NHC3H2NHC3H2NHC3H2NHC3H2NHC3NC3NC5NC5NC36H26C4H4C3NC3NC5NC5NC36H26C4H4C3NC3NC5NC5NC36H26C4H4C3HNO2NHC3HNO2NHC3HNO2NHC3HNO2NHC3HNO2NHC3HNO2NH
_chemical_formula_sum              "C252 H180 N30 O12"
_cell_length_a       66.2944
_cell_length_b       66.2944
_cell_length_c       15.0111
_cell_angle_alpha    89.958
_cell_angle_beta     90.042
_cell_angle_gamma    120

_space_group_name_H-M_alt    "P 1"
_space_group_IT_number       1

loop_
  _space_group_symop_operation_xyz
  'x, y, z'

loop_
  _atom_site_type_symbol
  _atom_site_label
  _atom_site_symmetry_multiplicity
  _atom_site_fract_x
  _atom_site_fract_y
  _atom_site_fract_z
  _atom_site_occupancy
  C   C1        1.0  0.10009  0.53696  0.24735  1.0000
  C   C2        1.0  0.11831  0.53193  0.24472  1.0000
  C   C3        1.0  0.18669  0.53659  0.25460  1.0000
  C   C4        1.0  0.16686  0.53911  0.25565  1.0000
  C   C5        1.0  0.09895  0.65686  0.26532  1.0000
  C   C6        1.0  0.11450  0.68100  0.27083  1.0000
  C   C7        1.0  0.13446  0.73295  0.29495  1.0000
  C   C8        1.0  0.15002  0.75709  0.30042  1.0000
  C   C9        1.0  0.94098  0.58869  0.24528  1.0000
  C   C10       1.0  0.95906  0.58342  0.24767  1.0000
  C   C11       1.0  0.89277  0.58234  0.25744  1.0000
  C   C12       1.0  0.87325  0.58537  0.25647  1.0000
  C   C13       1.0  0.96009  0.46373  0.26481  1.0000
  C   C14       1.0  0.94434  0.43964  0.27019  1.0000
  C   C15       1.0  0.90759  0.36349  0.29884  1.0000
  C   C16       1.0  0.92355  0.38755  0.29359  1.0000
  H   H1        1.0  0.90794  0.35278  0.25055  1.0000
  H   H2        1.0  0.93530  0.39350  0.24235  1.0000
  H   H3        1.0  0.93607  0.43099  0.21319  1.0000
  H   H4        1.0  0.96319  0.47187  0.20427  1.0000
  H   H5        1.0  0.96662  0.58272  0.18920  1.0000
  H   H6        1.0  0.93605  0.59189  0.18472  1.0000
  H   H7        1.0  0.09579  0.64880  0.20463  1.0000
  H   H8        1.0  0.12259  0.68976  0.21377  1.0000
  H   H9        1.0  0.14932  0.76771  0.25254  1.0000
  H   H10       1.0  0.12263  0.72685  0.24396  1.0000
  H   H11       1.0  0.16595  0.55018  0.21040  1.0000
  H   H12       1.0  0.19935  0.54566  0.20820  1.0000
  H   H13       1.0  0.12318  0.52869  0.18414  1.0000
  H   H14       1.0  0.09235  0.53749  0.18900  1.0000
  H   H15       1.0  0.89333  0.57103  0.21251  1.0000
  H   H16       1.0  0.86042  0.57638  0.21052  1.0000
  H   H17       1.0  0.17965  0.80145  0.32550  1.0000
  H   H18       1.0  0.22317  0.53177  0.26844  1.0000
  H   H19       1.0  0.83740  0.59126  0.27023  1.0000
  H   H20       1.0  0.87722  0.31930  0.32343  1.0000
  C   C17       1.0  0.55500  0.65798  0.24792  1.0000
  C   C18       1.0  0.56003  0.68124  0.24527  1.0000
  C   C19       1.0  0.55538  0.74495  0.25502  1.0000
  C   C20       1.0  0.55283  0.72260  0.25616  1.0000
  C   C21       1.0  0.43507  0.53691  0.26594  1.0000
  C   C22       1.0  0.41094  0.52833  0.27144  1.0000
  C   C23       1.0  0.35899  0.49634  0.29563  1.0000
  C   C24       1.0  0.33485  0.48776  0.30108  1.0000
  C   C25       1.0  0.50324  0.44716  0.24578  1.0000
  C   C26       1.0  0.50851  0.47049  0.24820  1.0000
  C   C27       1.0  0.50956  0.40526  0.25786  1.0000
  C   C28       1.0  0.50654  0.38272  0.25693  1.0000
  C   C29       1.0  0.62822  0.59125  0.26537  1.0000
  C   C30       1.0  0.65231  0.59958  0.27075  1.0000
  C   C31       1.0  0.72846  0.63895  0.29949  1.0000
  C   C32       1.0  0.70440  0.63086  0.29425  1.0000
  H   H21       1.0  0.73917  0.65004  0.25126  1.0000
  H   H22       1.0  0.69846  0.63670  0.24307  1.0000
  H   H23       1.0  0.66097  0.60001  0.21373  1.0000
  H   H24       1.0  0.62009  0.58626  0.20480  1.0000
  H   H25       1.0  0.50922  0.47879  0.18973  1.0000
  H   H26       1.0  0.50003  0.43905  0.18521  1.0000
  H   H27       1.0  0.44314  0.54182  0.20523  1.0000
  H   H28       1.0  0.40218  0.52765  0.21436  1.0000
  H   H29       1.0  0.32423  0.47644  0.25323  1.0000
  H   H30       1.0  0.36509  0.49061  0.24468  1.0000
  H   H31       1.0  0.54179  0.71064  0.21083  1.0000
  H   H32       1.0  0.54630  0.74856  0.20862  1.0000
  H   H33       1.0  0.56328  0.68937  0.18468  1.0000
  H   H34       1.0  0.55448  0.64974  0.18958  1.0000
  H   H35       1.0  0.52089  0.41716  0.21298  1.0000
  H   H36       1.0  0.51554  0.37890  0.21102  1.0000
  H   H37       1.0  0.29050  0.47304  0.32612  1.0000
  H   H38       1.0  0.56019  0.78626  0.26887  1.0000
  H   H39       1.0  0.50067  0.34099  0.27075  1.0000
  H   H40       1.0  0.77265  0.65274  0.32405  1.0000
  C   C33       1.0  0.43399  0.99187  0.24836  1.0000
  C   C34       1.0  0.41073  0.97364  0.24564  1.0000
  C   C35       1.0  0.34702  0.90527  0.25528  1.0000
  C   C36       1.0  0.36937  0.92509  0.25645  1.0000
  C   C37       1.0  0.55501  0.99300  0.26661  1.0000
  C   C38       1.0  0.56360  0.97745  0.27209  1.0000
  C   C39       1.0  0.59560  0.95749  0.29620  1.0000
  C   C40       1.0  0.60418  0.94193  0.30164  1.0000
  C   C41       1.0  0.64476  0.15094  0.24618  1.0000
  C   C42       1.0  0.62142  0.13288  0.24868  1.0000
  C   C43       1.0  0.68664  0.19915  0.25819  1.0000
  C   C44       1.0  0.70919  0.21867  0.25714  1.0000
  C   C45       1.0  0.50071  0.13184  0.26592  1.0000
  C   C46       1.0  0.49237  0.14759  0.27132  1.0000
  C   C47       1.0  0.45299  0.18434  0.30006  1.0000
  C   C48       1.0  0.46108  0.16839  0.29483  1.0000
  H   H41       1.0  0.44190  0.18399  0.25183  1.0000
  H   H42       1.0  0.45525  0.15662  0.24363  1.0000
  H   H43       1.0  0.49194  0.15584  0.21431  1.0000
  H   H44       1.0  0.50570  0.12872  0.20535  1.0000
  H   H45       1.0  0.61310  0.12531  0.19025  1.0000
  H   H46       1.0  0.65284  0.15587  0.18557  1.0000
  H   H47       1.0  0.55010  0.99618  0.20593  1.0000
  H   H48       1.0  0.56427  0.96938  0.21501  1.0000
  H   H49       1.0  0.61549  0.94264  0.25376  1.0000
  H   H50       1.0  0.60132  0.96934  0.24526  1.0000
  H   H51       1.0  0.38135  0.92600  0.21126  1.0000
  H   H52       1.0  0.34343  0.89261  0.20890  1.0000
  H   H53       1.0  0.40263  0.96878  0.18502  1.0000
  H   H54       1.0  0.44225  0.99961  0.19004  1.0000
  H   H55       1.0  0.67473  0.19861  0.21343  1.0000
  H   H56       1.0  0.71298  0.23151  0.21130  1.0000
  H   H57       1.0  0.61890  0.91228  0.32662  1.0000
  H   H58       1.0  0.30571  0.86879  0.26893  1.0000
  H   H59       1.0  0.75093  0.25452  0.27077  1.0000
  H   H60       1.0  0.43920  0.21473  0.32465  1.0000
  C   C49       1.0  0.22780  0.49610  0.32480  1.0000
  C   C50       1.0  0.26560  0.50449  0.26625  1.0000
  C   C51       1.0  0.24364  0.50236  0.25325  1.0000
  H   H61       1.0  0.27719  0.51000  0.21447  1.0000
  H   H62       1.0  0.23962  0.50642  0.19249  1.0000
  N   N1        1.0  0.20702  0.49711  0.31778  1.0000
  H   H63       1.0  0.19843  0.48907  0.26006  1.0000
  C   C52       1.0  0.59584  0.82653  0.32530  1.0000
  C   C53       1.0  0.58747  0.85597  0.26675  1.0000
  C   C54       1.0  0.58960  0.83614  0.25376  1.0000
  H   H64       1.0  0.58195  0.86206  0.21497  1.0000
  H   H65       1.0  0.58554  0.82808  0.19299  1.0000
  N   N2        1.0  0.59484  0.80475  0.31828  1.0000
  H   H66       1.0  0.60289  0.80422  0.26057  1.0000
  C   C55       1.0  0.26541  0.86417  0.32489  1.0000
  C   C56       1.0  0.23601  0.82640  0.26604  1.0000
  C   C57       1.0  0.25584  0.84837  0.25323  1.0000
  H   H67       1.0  0.22994  0.81483  0.21419  1.0000
  H   H68       1.0  0.26392  0.85241  0.19252  1.0000
  N   N3        1.0  0.28721  0.88495  0.31806  1.0000
  H   H69       1.0  0.28777  0.89356  0.26034  1.0000
  C   C58       1.0  0.83389  0.62766  0.32469  1.0000
  C   C59       1.0  0.79640  0.62016  0.26569  1.0000
  C   C60       1.0  0.81811  0.62169  0.25304  1.0000
  H   H70       1.0  0.78483  0.61484  0.21385  1.0000
  H   H71       1.0  0.82195  0.61740  0.19246  1.0000
  N   N4        1.0  0.85435  0.62607  0.31805  1.0000
  H   H72       1.0  0.86300  0.63385  0.26010  1.0000
  C   C61       1.0  0.46427  0.30105  0.32526  1.0000
  C   C62       1.0  0.47178  0.27108  0.26627  1.0000
  C   C63       1.0  0.47025  0.29127  0.25361  1.0000
  H   H73       1.0  0.47710  0.26485  0.21443  1.0000
  H   H74       1.0  0.47454  0.29943  0.19303  1.0000
  N   N5        1.0  0.46586  0.32311  0.31860  1.0000
  H   H75       1.0  0.45807  0.32399  0.26065  1.0000
  C   C64       1.0  0.79089  0.25803  0.32479  1.0000
  C   C65       1.0  0.82083  0.29550  0.26552  1.0000
  C   C66       1.0  0.80064  0.27379  0.25304  1.0000
  H   H76       1.0  0.82704  0.30705  0.21361  1.0000
  H   H77       1.0  0.79245  0.26992  0.19252  1.0000
  N   N6        1.0  0.76882  0.23757  0.31833  1.0000
  H   H78       1.0  0.76791  0.22891  0.26038  1.0000
  C   C67       1.0  0.02060  0.49197  0.33054  1.0000
  C   C68       1.0  0.04460  0.50483  0.32890  1.0000
  C   C69       1.0  0.05127  0.52843  0.33099  1.0000
  N   N7        1.0  0.03112  0.52899  0.33349  1.0000
  C   C70       1.0  0.01204  0.50742  0.33381  1.0000
  C   C71       1.0  0.98804  0.50073  0.33686  1.0000
  C   C72       1.0  0.97933  0.51641  0.33662  1.0000
  N   N8        1.0  0.99171  0.53991  0.33375  1.0000
  C   C73       1.0  0.97777  0.54935  0.33417  1.0000
  C   C74       1.0  0.95494  0.53067  0.33697  1.0000
  C   C75       1.0  0.95591  0.51036  0.33911  1.0000
  C   C76       1.0  0.98459  0.57333  0.33187  1.0000
  C   C77       1.0  0.00800  0.59205  0.33122  1.0000
  N   N9        1.0  0.02814  0.59148  0.33369  1.0000
  C   C78       1.0  0.04722  0.61306  0.33409  1.0000
  C   C79       1.0  0.03866  0.62851  0.33087  1.0000
  C   C80       1.0  0.01466  0.61565  0.32916  1.0000
  C   C81       1.0  0.07122  0.61974  0.33717  1.0000
  C   C82       1.0  0.07993  0.60407  0.33680  1.0000
  N   N10       1.0  0.06755  0.58057  0.33387  1.0000
  C   C83       1.0  0.08149  0.57113  0.33413  1.0000
  C   C84       1.0  0.10432  0.58982  0.33678  1.0000
  C   C85       1.0  0.10335  0.61012  0.33911  1.0000
  C   C86       1.0  0.07468  0.54714  0.33169  1.0000
  C   C87       1.0  0.09273  0.54148  0.32937  1.0000
  C   C88       1.0  0.12973  0.53134  0.32370  1.0000
  C   C89       1.0  0.12195  0.53558  0.40575  1.0000
  C   C90       1.0  0.10368  0.54056  0.40870  1.0000
  C   C91       1.0  0.14919  0.52765  0.32039  1.0000
  C   C92       1.0  0.15198  0.51333  0.38347  1.0000
  C   C93       1.0  0.17189  0.51090  0.38282  1.0000
  C   C94       1.0  0.18955  0.52257  0.31852  1.0000
  C   C95       1.0  0.08772  0.64397  0.34253  1.0000
  C   C96       1.0  0.11919  0.69290  0.35332  1.0000
  C   C97       1.0  0.10782  0.67972  0.43031  1.0000
  C   C98       1.0  0.09232  0.65560  0.42514  1.0000
  C   C99       1.0  0.13485  0.71744  0.35897  1.0000
  C   C100      1.0  0.16650  0.76653  0.37016  1.0000
  C   C101      1.0  0.16671  0.75115  0.43493  1.0000
  C   C102      1.0  0.15124  0.72703  0.42921  1.0000
  C   C103      1.0  0.96655  0.57902  0.32967  1.0000
  C   C104      1.0  0.95586  0.58024  0.40919  1.0000
  C   C105      1.0  0.93775  0.58545  0.40648  1.0000
  C   C106      1.0  0.92987  0.58963  0.32448  1.0000
  C   C107      1.0  0.91066  0.59372  0.32149  1.0000
  C   C108      1.0  0.87090  0.59981  0.31984  1.0000
  C   C109      1.0  0.88877  0.61136  0.38352  1.0000
  C   C110      1.0  0.90839  0.60844  0.38406  1.0000
  C   C111      1.0  0.97152  0.47650  0.34199  1.0000
  C   C112      1.0  0.96695  0.46477  0.42442  1.0000
  C   C113      1.0  0.93964  0.42765  0.35254  1.0000
  C   C114      1.0  0.95125  0.44069  0.42947  1.0000
  C   C115      1.0  0.92365  0.40318  0.35811  1.0000
  C   C116      1.0  0.90734  0.39378  0.42864  1.0000
  C   C117      1.0  0.89148  0.36975  0.43416  1.0000
  C   C118      1.0  0.89119  0.35426  0.36884  1.0000
  H   H79       1.0  0.87991  0.36366  0.48597  1.0000
  H   H80       1.0  0.90649  0.40443  0.47603  1.0000
  H   H81       1.0  0.94875  0.43268  0.49003  1.0000
  H   H82       1.0  0.97522  0.47363  0.48114  1.0000
  H   H83       1.0  0.01118  0.47418  0.32967  1.0000
  H   H84       1.0  0.05522  0.49777  0.32728  1.0000
  H   H85       1.0  0.03045  0.54310  0.33706  1.0000
  H   H86       1.0  0.02881  0.57737  0.33726  1.0000
  H   H87       1.0  0.94170  0.49398  0.34154  1.0000
  H   H88       1.0  0.93991  0.53141  0.33792  1.0000
  H   H89       1.0  0.96096  0.57699  0.46937  1.0000
  H   H90       1.0  0.92987  0.58543  0.46510  1.0000
  H   H91       1.0  0.00404  0.62271  0.32753  1.0000
  H   H92       1.0  0.04808  0.64630  0.33003  1.0000
  H   H93       1.0  0.11936  0.58908  0.33756  1.0000
  H   H94       1.0  0.11756  0.62650  0.34145  1.0000
  H   H95       1.0  0.08416  0.64665  0.48186  1.0000
  H   H96       1.0  0.11031  0.68766  0.49098  1.0000
  H   H97       1.0  0.15242  0.71649  0.47623  1.0000
  H   H98       1.0  0.17833  0.75740  0.48657  1.0000
  H   H99       1.0  0.09871  0.54392  0.46887  1.0000
  H   H100      1.0  0.13006  0.53588  0.46419  1.0000
  H   H101      1.0  0.17359  0.50081  0.43053  1.0000
  H   H102      1.0  0.13956  0.50459  0.43107  1.0000
  H   H103      1.0  0.92099  0.61714  0.43113  1.0000
  H   H104      1.0  0.88745  0.62176  0.43081  1.0000
  C   C119      1.0  0.18360  0.79191  0.37555  1.0000
  C   C120      1.0  0.21133  0.52138  0.32213  1.0000
  C   C121      1.0  0.87364  0.32900  0.37393  1.0000
  C   C122      1.0  0.84946  0.60161  0.32345  1.0000
  H   H105      1.0  0.18214  0.79831  0.44092  1.0000
  H   H106      1.0  0.21998  0.52929  0.38516  1.0000
  H   H107      1.0  0.84084  0.59401  0.38683  1.0000
  H   H108      1.0  0.87499  0.32238  0.43903  1.0000
  C   C123      1.0  0.59998  0.62346  0.33170  1.0000
  C   C124      1.0  0.58712  0.63461  0.32999  1.0000
  C   C125      1.0  0.56351  0.61767  0.33181  1.0000
  N   N11       1.0  0.56295  0.59696  0.33416  1.0000
  C   C126      1.0  0.58453  0.59945  0.33459  1.0000
  C   C127      1.0  0.59122  0.58215  0.33744  1.0000
  C   C128      1.0  0.57554  0.55776  0.33710  1.0000
  N   N12       1.0  0.55204  0.54663  0.33432  1.0000
  C   C129      1.0  0.54259  0.52325  0.33468  1.0000
  C   C130      1.0  0.56128  0.51910  0.33732  1.0000
  C   C131      1.0  0.58159  0.54038  0.33946  1.0000
  C   C132      1.0  0.51861  0.50608  0.33243  1.0000
  C   C133      1.0  0.49990  0.51078  0.33182  1.0000
  N   N13       1.0  0.50047  0.53149  0.33428  1.0000
  C   C134      1.0  0.47889  0.52899  0.33476  1.0000
  C   C135      1.0  0.46344  0.50499  0.33167  1.0000
  C   C136      1.0  0.47630  0.49384  0.32985  1.0000
  C   C137      1.0  0.47220  0.54630  0.33782  1.0000
  C   C138      1.0  0.48787  0.57068  0.33735  1.0000
  N   N14       1.0  0.51138  0.58182  0.33450  1.0000
  C   C139      1.0  0.52081  0.60520  0.33462  1.0000
  C   C140      1.0  0.50212  0.60933  0.33717  1.0000
  C   C141      1.0  0.48181  0.58805  0.33949  1.0000
  C   C142      1.0  0.54480  0.62236  0.33228  1.0000
  C   C143      1.0  0.55046  0.64608  0.32994  1.0000
  C   C144      1.0  0.56060  0.69322  0.32423  1.0000
  C   C145      1.0  0.55633  0.68117  0.40627  1.0000
  C   C146      1.0  0.55137  0.65792  0.40925  1.0000
  C   C147      1.0  0.56430  0.71637  0.32089  1.0000
  C   C148      1.0  0.57861  0.73346  0.38399  1.0000
  C   C149      1.0  0.58104  0.75580  0.38330  1.0000
  C   C150      1.0  0.56938  0.76182  0.31898  1.0000
  C   C151      1.0  0.44797  0.53858  0.34316  1.0000
  C   C152      1.0  0.39904  0.52111  0.35395  1.0000
  C   C153      1.0  0.41222  0.52293  0.43095  1.0000
  C   C154      1.0  0.43634  0.53154  0.42579  1.0000
  C   C155      1.0  0.37450  0.51224  0.35958  1.0000
  C   C156      1.0  0.32542  0.49480  0.37076  1.0000
  C   C157      1.0  0.34080  0.51038  0.43548  1.0000
  C   C158      1.0  0.36491  0.51904  0.42973  1.0000
  C   C159      1.0  0.51293  0.48236  0.33021  1.0000
  C   C160      1.0  0.51171  0.47043  0.40971  1.0000
  C   C161      1.0  0.50651  0.44711  0.40696  1.0000
  C   C162      1.0  0.50230  0.43507  0.32496  1.0000
  C   C163      1.0  0.49820  0.41177  0.32194  1.0000
  C   C164      1.0  0.49211  0.36592  0.32034  1.0000
  C   C165      1.0  0.48055  0.37221  0.38401  1.0000
  C   C166      1.0  0.48349  0.39476  0.38455  1.0000
  C   C167      1.0  0.61545  0.58985  0.34257  1.0000
  C   C168      1.0  0.62717  0.59694  0.42504  1.0000
  C   C169      1.0  0.66430  0.60681  0.35312  1.0000
  C   C170      1.0  0.65125  0.60531  0.43009  1.0000
  C   C171      1.0  0.68877  0.61528  0.35871  1.0000
  C   C172      1.0  0.69816  0.60832  0.42915  1.0000
  C   C173      1.0  0.72219  0.61648  0.43466  1.0000
  C   C174      1.0  0.73768  0.63173  0.36942  1.0000
  H   H109      1.0  0.72828  0.61097  0.48643  1.0000
  H   H110      1.0  0.68751  0.59679  0.47649  1.0000
  H   H111      1.0  0.65925  0.61077  0.49066  1.0000
  H   H112      1.0  0.61830  0.59631  0.48178  1.0000
  H   H113      1.0  0.61777  0.63184  0.33097  1.0000
  H   H114      1.0  0.59418  0.65229  0.32862  1.0000
  H   H115      1.0  0.54884  0.58217  0.33698  1.0000
  H   H116      1.0  0.51458  0.54627  0.33776  1.0000
  H   H117      1.0  0.59797  0.54255  0.34183  1.0000
  H   H118      1.0  0.56054  0.50333  0.33824  1.0000
  H   H119      1.0  0.51497  0.47875  0.46989  1.0000
  H   H120      1.0  0.50651  0.43922  0.46559  1.0000
  H   H121      1.0  0.46924  0.47616  0.32841  1.0000
  H   H122      1.0  0.44565  0.49660  0.33096  1.0000
  H   H123      1.0  0.50285  0.62510  0.33782  1.0000
  H   H124      1.0  0.46544  0.58588  0.34179  1.0000
  H   H125      1.0  0.44529  0.53232  0.48252  1.0000
  H   H126      1.0  0.40429  0.51747  0.49163  1.0000
  H   H127      1.0  0.37546  0.53075  0.47676  1.0000
  H   H128      1.0  0.33456  0.51577  0.48706  1.0000
  H   H129      1.0  0.54799  0.64957  0.46942  1.0000
  H   H130      1.0  0.55604  0.68896  0.46471  1.0000
  H   H131      1.0  0.59111  0.76756  0.43106  1.0000
  H   H132      1.0  0.58734  0.72976  0.43162  1.0000
  H   H133      1.0  0.47480  0.39865  0.43163  1.0000
  H   H134      1.0  0.47017  0.36049  0.43134  1.0000
  C   C175      1.0  0.30004  0.48653  0.37611  1.0000
  C   C176      1.0  0.57057  0.78479  0.32259  1.0000
  C   C177      1.0  0.76294  0.63944  0.37449  1.0000
  C   C178      1.0  0.49032  0.34268  0.32397  1.0000
  H   H135      1.0  0.29363  0.47866  0.44152  1.0000
  H   H136      1.0  0.56266  0.78550  0.38560  1.0000
  H   H137      1.0  0.49792  0.34164  0.38735  1.0000
  H   H138      1.0  0.76956  0.64736  0.43963  1.0000
  C   C179      1.0  0.46849  0.07135  0.33199  1.0000
  C   C180      1.0  0.45734  0.04735  0.33034  1.0000
  C   C181      1.0  0.47428  0.04068  0.33227  1.0000
  N   N15       1.0  0.49499  0.06083  0.33470  1.0000
  C   C182      1.0  0.49249  0.07991  0.33505  1.0000
  C   C183      1.0  0.50980  0.10391  0.33796  1.0000
  C   C184      1.0  0.53419  0.11261  0.33771  1.0000
  N   N16       1.0  0.54532  0.10024  0.33491  1.0000
  C   C185      1.0  0.56870  0.11418  0.33531  1.0000
  C   C186      1.0  0.57285  0.13700  0.33794  1.0000
  C   C187      1.0  0.55157  0.13604  0.34014  1.0000
  C   C188      1.0  0.58586  0.10735  0.33305  1.0000
  C   C189      1.0  0.58116  0.08394  0.33249  1.0000
  N   N17       1.0  0.56045  0.06380  0.33504  1.0000
  C   C190      1.0  0.56295  0.04472  0.33546  1.0000
  C   C191      1.0  0.58695  0.05328  0.33225  1.0000
  C   C192      1.0  0.59810  0.07728  0.33049  1.0000
  C   C193      1.0  0.54564  0.02073  0.33853  1.0000
  C   C194      1.0  0.52126  0.01201  0.33806  1.0000
  N   N18       1.0  0.51013  0.02439  0.33514  1.0000
  C   C195      1.0  0.48675  0.01045  0.33526  1.0000
  C   C196      1.0  0.48261  0.98762  0.33788  1.0000
  C   C197      1.0  0.50389  0.98859  0.34025  1.0000
  C   C198      1.0  0.46958  0.01727  0.33284  1.0000
  C   C199      1.0  0.44586  0.99922  0.33043  1.0000
  C   C200      1.0  0.39872  0.96222  0.32457  1.0000
  C   C201      1.0  0.41075  0.96998  0.40666  1.0000
  C   C202      1.0  0.43400  0.98826  0.40972  1.0000
  C   C203      1.0  0.37558  0.94277  0.32115  1.0000
  C   C204      1.0  0.35847  0.93998  0.38413  1.0000
  C   C205      1.0  0.33613  0.92007  0.38338  1.0000
  C   C206      1.0  0.33013  0.90241  0.31909  1.0000
  C   C207      1.0  0.55336  0.00422  0.34384  1.0000
  C   C208      1.0  0.57083  0.97275  0.35458  1.0000
  C   C209      1.0  0.56902  0.98409  0.43160  1.0000
  C   C210      1.0  0.56041  0.99960  0.42646  1.0000
  C   C211      1.0  0.57970  0.95708  0.36019  1.0000
  C   C212      1.0  0.59714  0.92543  0.37130  1.0000
  C   C213      1.0  0.58157  0.92521  0.43606  1.0000
  C   C214      1.0  0.57292  0.94067  0.43036  1.0000
  C   C215      1.0  0.60958  0.12539  0.33075  1.0000
  C   C216      1.0  0.62155  0.13607  0.41022  1.0000
  C   C217      1.0  0.64487  0.15419  0.40738  1.0000
  C   C218      1.0  0.65688  0.16206  0.32532  1.0000
  C   C219      1.0  0.68017  0.18125  0.32222  1.0000
  C   C220      1.0  0.72602  0.22101  0.32040  1.0000
  C   C221      1.0  0.71975  0.20314  0.38404  1.0000
  C   C222      1.0  0.69721  0.18353  0.38468  1.0000
  C   C223      1.0  0.50210  0.12043  0.34311  1.0000
  C   C224      1.0  0.49500  0.12502  0.42558  1.0000
  C   C225      1.0  0.48513  0.15231  0.35369  1.0000
  C   C226      1.0  0.48663  0.14073  0.43064  1.0000
  C   C227      1.0  0.47666  0.16830  0.35929  1.0000
  C   C228      1.0  0.48362  0.18463  0.42975  1.0000
  C   C229      1.0  0.47546  0.20050  0.43524  1.0000
  C   C230      1.0  0.46021  0.20077  0.37000  1.0000
  H   H139      1.0  0.48096  0.21208  0.48703  1.0000
  H   H140      1.0  0.49514  0.18549  0.47709  1.0000
  H   H141      1.0  0.48116  0.14324  0.49121  1.0000
  H   H142      1.0  0.49562  0.11676  0.48230  1.0000
  H   H143      1.0  0.46011  0.08077  0.33115  1.0000
  H   H144      1.0  0.43966  0.03673  0.32879  1.0000
  H   H145      1.0  0.50977  0.06149  0.33782  1.0000
  H   H146      1.0  0.54568  0.06313  0.33859  1.0000
  H   H147      1.0  0.54941  0.15025  0.34247  1.0000
  H   H148      1.0  0.58862  0.15204  0.33894  1.0000
  H   H149      1.0  0.61324  0.13099  0.47044  1.0000
  H   H150      1.0  0.65277  0.16206  0.46598  1.0000
  H   H151      1.0  0.61578  0.08790  0.32879  1.0000
  H   H152      1.0  0.59533  0.04386  0.33141  1.0000
  H   H153      1.0  0.46684  0.97258  0.33853  1.0000
  H   H154      1.0  0.50605  0.97438  0.34256  1.0000
  H   H155      1.0  0.55963  0.00775  0.48319  1.0000
  H   H156      1.0  0.57449  0.98160  0.49227  1.0000
  H   H157      1.0  0.56119  0.93948  0.47737  1.0000
  H   H158      1.0  0.57618  0.91356  0.48763  1.0000
  H   H159      1.0  0.44233  0.99323  0.46992  1.0000
  H   H160      1.0  0.40294  0.96189  0.46508  1.0000
  H   H161      1.0  0.32434  0.91837  0.43101  1.0000
  H   H162      1.0  0.36215  0.95239  0.43173  1.0000
  H   H163      1.0  0.69334  0.17093  0.43173  1.0000
  H   H164      1.0  0.73149  0.20446  0.43127  1.0000
  C   C231      1.0  0.60542  0.90832  0.37663  1.0000
  C   C232      1.0  0.30716  0.88063  0.32259  1.0000
  C   C233      1.0  0.45250  0.21832  0.37507  1.0000
  C   C234      1.0  0.74927  0.24246  0.32395  1.0000
  H   H165      1.0  0.61329  0.90976  0.44202  1.0000
  H   H166      1.0  0.30641  0.87198  0.38564  1.0000
  H   H167      1.0  0.75033  0.25108  0.38737  1.0000
  H   H168      1.0  0.44458  0.21699  0.44022  1.0000
  C   C235      1.0  0.23403  0.49128  0.40859  1.0000
  C   C236      1.0  0.25629  0.49376  0.42297  1.0000
  C   C237      1.0  0.27222  0.50053  0.35085  1.0000
  H   H169      1.0  0.22290  0.48746  0.46126  1.0000
  N   N19       1.0  0.26348  0.49098  0.50856  1.0000
  O   O1        1.0  0.26348  0.50535  0.56311  1.0000
  O   O2        1.0  0.25049  0.47077  0.53803  1.0000
  N   N20       1.0  0.29568  0.50615  0.36050  1.0000
  H   H170      1.0  0.30334  0.51873  0.40876  1.0000
  C   C238      1.0  0.60067  0.83756  0.40910  1.0000
  C   C239      1.0  0.59818  0.85732  0.42348  1.0000
  C   C240      1.0  0.59141  0.86651  0.35135  1.0000
  H   H171      1.0  0.60448  0.83023  0.46176  1.0000
  N   N21       1.0  0.60096  0.86726  0.50907  1.0000
  O   O3        1.0  0.58658  0.85288  0.56361  1.0000
  O   O4        1.0  0.62117  0.87447  0.53855  1.0000
  N   N22       1.0  0.58579  0.88434  0.36100  1.0000
  H   H172      1.0  0.57322  0.87942  0.40926  1.0000
  C   C241      1.0  0.25435  0.85790  0.40860  1.0000
  C   C242      1.0  0.23458  0.83564  0.42280  1.0000
  C   C243      1.0  0.22543  0.81974  0.35057  1.0000
  H   H173      1.0  0.26165  0.86901  0.46134  1.0000
  N   N23       1.0  0.22460  0.82841  0.50832  1.0000
  O   O5        1.0  0.23896  0.82838  0.56292  1.0000
  O   O6        1.0  0.21738  0.84139  0.53783  1.0000
  N   N24       1.0  0.20759  0.79627  0.36005  1.0000
  H   H174      1.0  0.21249  0.78859  0.40830  1.0000
  C   C244      1.0  0.82788  0.63281  0.40824  1.0000
  C   C245      1.0  0.80587  0.63093  0.42230  1.0000
  C   C246      1.0  0.78998  0.62444  0.35006  1.0000
  H   H175      1.0  0.83895  0.63642  0.46101  1.0000
  N   N25       1.0  0.79885  0.63401  0.50770  1.0000
  O   O7        1.0  0.79843  0.61948  0.56257  1.0000
  O   O8        1.0  0.81222  0.65416  0.53693  1.0000
  N   N26       1.0  0.76669  0.61941  0.35946  1.0000
  H   H176      1.0  0.75879  0.60693  0.40792  1.0000
  C   C247      1.0  0.45913  0.28987  0.40881  1.0000
  C   C248      1.0  0.46101  0.26974  0.42287  1.0000
  C   C249      1.0  0.46750  0.26036  0.35064  1.0000
  H   H177      1.0  0.45551  0.29731  0.46158  1.0000
  N   N27       1.0  0.45793  0.25961  0.50828  1.0000
  O   O9        1.0  0.47246  0.27370  0.56315  1.0000
  O   O10       1.0  0.43778  0.25282  0.53752  1.0000
  N   N28       1.0  0.47254  0.24211  0.36005  1.0000
  H   H178      1.0  0.48502  0.24667  0.40851  1.0000
  C   C250      1.0  0.80212  0.26408  0.40827  1.0000
  C   C251      1.0  0.82225  0.28610  0.42215  1.0000
  C   C252      1.0  0.83159  0.30195  0.34981  1.0000
  H   H179      1.0  0.79470  0.25303  0.46111  1.0000
  N   N29       1.0  0.83242  0.29316  0.50747  1.0000
  O   O11       1.0  0.81835  0.29360  0.56241  1.0000
  O   O12       1.0  0.83922  0.27980  0.53674  1.0000
  N   N30       1.0  0.84985  0.32524  0.35903  1.0000
  H   H180      1.0  0.84530  0.33316  0.40750  1.0000
