data_image0
_chemical_formula_structural       C2HC2OHCHC3HN2COH2OC2OHOHCOHC3O2H2CHC6H3N2C6H3N2C2OCHC3OH2CHC3OHOHCHNC3OHOHCHC3O2H2CHC3O2H2CHC3H2N2C6H3N3C3O2H2CHC3OHOHCHC3OHOHCH
_chemical_formula_sum              "C72 H48 O24 N12"
_cell_length_a       34.7505
_cell_length_b       34.7505
_cell_length_c       14.6658
_cell_angle_alpha    90
_cell_angle_beta     90
_cell_angle_gamma    120

_space_group_name_H-M_alt    "P 1"
_space_group_IT_number       1

loop_
  _space_group_symop_operation_xyz
  'x, y, z'

loop_
  _atom_site_type_symbol
  _atom_site_label
  _atom_site_symmetry_multiplicity
  _atom_site_fract_x
  _atom_site_fract_y
  _atom_site_fract_z
  _atom_site_occupancy
  C   C1        1.0  0.18055  0.10118  0.34621  1.0000
  C   C2        1.0  0.13576  0.08859  0.33740  1.0000
  H   H1        1.0  0.12845  0.11013  0.30901  1.0000
  C   C3        1.0  0.91986  0.08503  0.34625  1.0000
  C   C4        1.0  0.89936  0.09415  0.27216  1.0000
  O   O1        1.0  0.89576  0.07489  0.18921  1.0000
  H   H2        1.0  0.86593  0.04846  0.18720  1.0000
  C   C5        1.0  0.93246  0.05283  0.33743  1.0000
  H   H3        1.0  0.91090  0.02396  0.30913  1.0000
  C   C6        1.0  0.98987  0.03406  0.35808  1.0000
  C   C7        1.0  0.03680  0.05550  0.35872  1.0000
  C   C8        1.0  0.05958  0.03118  0.35799  1.0000
  H   H4        1.0  0.05466  0.08947  0.36080  1.0000
  N   N1        1.0  0.97113  0.05970  0.36099  1.0000
  N   N2        1.0  0.10395  0.04991  0.36096  1.0000
  C   C9        1.0  0.19837  0.09680  0.43001  1.0000
  O   O2        1.0  0.17181  0.07959  0.50474  1.0000
  H   H5        1.0  0.25677  0.07869  0.52377  1.0000
  H   H6        1.0  0.16319  0.04800  0.50716  1.0000
  O   O3        1.0  0.94137  0.09781  0.50484  1.0000
  C   C10       1.0  0.21019  0.12169  0.27213  1.0000
  C   C11       1.0  0.25622  0.13704  0.28121  1.0000
  O   O4        1.0  0.28280  0.15422  0.20649  1.0000
  H   H7        1.0  0.29133  0.18579  0.20386  1.0000
  O   O5        1.0  0.19453  0.12533  0.18919  1.0000
  H   H8        1.0  0.19795  0.15517  0.18724  1.0000
  C   C12       1.0  0.88399  0.12482  0.28125  1.0000
  O   O6        1.0  0.86683  0.13423  0.20651  1.0000
  H   H9        1.0  0.83527  0.11120  0.20383  1.0000
  C   C13       1.0  0.55119  0.17283  0.33675  1.0000
  C   C14       1.0  0.57724  0.16941  0.26598  1.0000
  C   C15       1.0  0.61703  0.16915  0.28549  1.0000
  O   O7        1.0  0.56568  0.16888  0.17675  1.0000
  O   O8        1.0  0.64212  0.16955  0.21356  1.0000
  H   H10       1.0  0.58348  0.19951  0.15397  1.0000
  H   H11       1.0  0.66126  0.20090  0.19629  1.0000
  C   C16       1.0  0.52093  0.18690  0.31502  1.0000
  H   H12       1.0  0.52902  0.20791  0.26275  1.0000
  C   C17       1.0  0.46529  0.20269  0.35834  1.0000
  C   C18       1.0  0.41838  0.18030  0.35968  1.0000
  C   C19       1.0  0.39495  0.20406  0.35411  1.0000
  C   C20       1.0  0.41975  0.25111  0.34877  1.0000
  C   C21       1.0  0.46665  0.27443  0.35330  1.0000
  C   C22       1.0  0.48861  0.24956  0.35672  1.0000
  H   H13       1.0  0.40350  0.26879  0.34353  1.0000
  H   H14       1.0  0.52265  0.26609  0.35759  1.0000
  H   H15       1.0  0.40134  0.14635  0.36204  1.0000
  N   N3        1.0  0.48855  0.18167  0.36666  1.0000
  N   N4        1.0  0.35053  0.18464  0.35088  1.0000
  C   C23       1.0  0.81842  0.26829  0.35812  1.0000
  C   C24       1.0  0.84076  0.24373  0.35951  1.0000
  C   C25       1.0  0.81697  0.19654  0.35410  1.0000
  C   C26       1.0  0.76992  0.17433  0.34876  1.0000
  C   C27       1.0  0.74663  0.19794  0.35326  1.0000
  C   C28       1.0  0.77154  0.24477  0.35662  1.0000
  H   H16       1.0  0.75221  0.14039  0.34355  1.0000
  H   H17       1.0  0.75504  0.26232  0.35749  1.0000
  H   H18       1.0  0.87471  0.26062  0.36197  1.0000
  N   N5        1.0  0.83636  0.17151  0.35088  1.0000
  N   N6        1.0  0.70237  0.17825  0.34535  1.0000
  C   C29       1.0  0.27407  0.13282  0.36512  1.0000
  C   C30       1.0  0.24441  0.11216  0.43910  1.0000
  O   O9        1.0  0.26005  0.10848  0.52202  1.0000
  C   C31       1.0  0.31894  0.14578  0.37419  1.0000
  H   H19       1.0  0.32645  0.12442  0.40270  1.0000
  C   C32       1.0  0.88817  0.14686  0.36518  1.0000
  C   C33       1.0  0.90880  0.13784  0.43919  1.0000
  C   C34       1.0  0.92418  0.10718  0.43009  1.0000
  O   O10       1.0  0.91244  0.15713  0.52212  1.0000
  H   H20       1.0  0.94223  0.18364  0.52393  1.0000
  H   H21       1.0  0.97296  0.12079  0.50729  1.0000
  C   C35       1.0  0.87520  0.17876  0.37425  1.0000
  H   H22       1.0  0.89655  0.20762  0.40282  1.0000
  C   C36       1.0  0.63185  0.17187  0.37679  1.0000
  C   C37       1.0  0.60382  0.17156  0.44775  1.0000
  C   C38       1.0  0.56435  0.17234  0.42822  1.0000
  O   O11       1.0  0.54275  0.17834  0.49958  1.0000
  H   H23       1.0  0.52049  0.14841  0.52017  1.0000
  O   O12       1.0  0.61665  0.17570  0.53685  1.0000
  H   H24       1.0  0.60913  0.14577  0.55710  1.0000
  C   C39       1.0  0.67604  0.18464  0.39727  1.0000
  H   H25       1.0  0.68969  0.20555  0.44949  1.0000
  N   N7        1.0  0.83947  0.31257  0.36656  1.0000
  C   C40       1.0  0.93599  0.84049  0.34628  1.0000
  C   C41       1.0  0.92688  0.81085  0.27222  1.0000
  C   C42       1.0  0.89619  0.76482  0.28131  1.0000
  O   O13       1.0  0.88679  0.73824  0.20658  1.0000
  H   H26       1.0  0.90982  0.72970  0.20396  1.0000
  O   O14       1.0  0.94617  0.82650  0.18928  1.0000
  H   H27       1.0  0.97259  0.82308  0.18733  1.0000
  C   C43       1.0  0.96821  0.88528  0.33747  1.0000
  H   H28       1.0  0.99706  0.89258  0.30908  1.0000
  C   C44       1.0  0.84834  0.38409  0.33675  1.0000
  C   C45       1.0  0.85176  0.41358  0.26602  1.0000
  C   C46       1.0  0.85201  0.45364  0.28551  1.0000
  O   O15       1.0  0.85234  0.40258  0.17679  1.0000
  O   O16       1.0  0.85159  0.47830  0.21355  1.0000
  H   H29       1.0  0.82173  0.38975  0.15395  1.0000
  H   H30       1.0  0.82024  0.46607  0.19629  1.0000
  C   C47       1.0  0.83423  0.33976  0.31506  1.0000
  H   H31       1.0  0.81319  0.32690  0.26280  1.0000
  C   C48       1.0  0.63694  0.46995  0.33671  1.0000
  C   C49       1.0  0.60745  0.44387  0.26596  1.0000
  C   C50       1.0  0.56738  0.40409  0.28545  1.0000
  O   O17       1.0  0.61849  0.45542  0.17674  1.0000
  O   O18       1.0  0.54274  0.37899  0.21350  1.0000
  H   H32       1.0  0.63131  0.43762  0.15396  1.0000
  H   H33       1.0  0.55496  0.35985  0.19631  1.0000
  C   C51       1.0  0.68127  0.50015  0.31500  1.0000
  H   H34       1.0  0.69418  0.49202  0.26277  1.0000
  C   C52       1.0  0.03408  0.98425  0.35870  1.0000
  C   C53       1.0  0.98699  0.96147  0.35799  1.0000
  C   C54       1.0  0.96555  0.98696  0.35870  1.0000
  H   H35       1.0  0.05019  0.96638  0.36078  1.0000
  H   H36       1.0  0.93158  0.97085  0.36082  1.0000
  N   N8        1.0  0.96135  0.91710  0.36099  1.0000
  N   N9        1.0  0.49118  0.31870  0.34537  1.0000
  C   C55       1.0  0.75270  0.55578  0.35832  1.0000
  C   C56       1.0  0.77725  0.60269  0.35968  1.0000
  C   C57       1.0  0.82444  0.62609  0.35414  1.0000
  C   C58       1.0  0.84667  0.60128  0.34879  1.0000
  C   C59       1.0  0.82307  0.55438  0.35330  1.0000
  C   C60       1.0  0.77624  0.53244  0.35671  1.0000
  H   H37       1.0  0.88060  0.61751  0.34357  1.0000
  H   H38       1.0  0.75870  0.49839  0.35756  1.0000
  H   H39       1.0  0.76035  0.61974  0.36204  1.0000
  N   N10       1.0  0.70842  0.53255  0.36661  1.0000
  N   N11       1.0  0.84946  0.67052  0.35094  1.0000
  N   N12       1.0  0.84277  0.52982  0.34535  1.0000
  C   C61       1.0  0.87411  0.74699  0.36521  1.0000
  C   C62       1.0  0.88313  0.77665  0.43920  1.0000
  C   C63       1.0  0.91381  0.82268  0.43011  1.0000
  O   O19       1.0  0.86381  0.76100  0.52212  1.0000
  O   O20       1.0  0.92317  0.84925  0.50483  1.0000
  H   H40       1.0  0.83730  0.76428  0.52388  1.0000
  H   H41       1.0  0.90019  0.85786  0.50723  1.0000
  C   C64       1.0  0.84222  0.70211  0.37430  1.0000
  H   H42       1.0  0.81333  0.69460  0.40279  1.0000
  C   C65       1.0  0.84921  0.46570  0.37679  1.0000
  C   C66       1.0  0.84951  0.43798  0.44774  1.0000
  C   C67       1.0  0.84874  0.39773  0.42820  1.0000
  O   O21       1.0  0.84268  0.37010  0.49953  1.0000
  H   H43       1.0  0.87259  0.37776  0.52022  1.0000
  O   O22       1.0  0.84522  0.44656  0.53684  1.0000
  H   H44       1.0  0.87509  0.46905  0.55723  1.0000
  C   C68       1.0  0.83639  0.49707  0.39719  1.0000
  H   H45       1.0  0.81549  0.48983  0.44945  1.0000
  C   C69       1.0  0.55523  0.38926  0.37671  1.0000
  C   C70       1.0  0.58299  0.41727  0.44766  1.0000
  C   C71       1.0  0.62327  0.45672  0.42815  1.0000
  O   O23       1.0  0.65088  0.47830  0.49951  1.0000
  H   H46       1.0  0.64322  0.50055  0.52016  1.0000
  O   O24       1.0  0.57438  0.40444  0.53678  1.0000
  H   H47       1.0  0.55188  0.41181  0.55708  1.0000
  C   C72       1.0  0.52389  0.34506  0.39727  1.0000
  H   H48       1.0  0.53120  0.33144  0.44947  1.0000
