data_image0
_chemical_formula_structural       C7H2C2O2C3NC2NCHCH2NHC3NC2NCH2NHC5HC4H3C2O2C3H5NHC3H4CH2NHC7H2C2O2C3NC2NCHCH2NHC3NC2NCH2NHC5HC4H3C2O2C3H5NHC3H4CH2NHC7H2C2O2C3NC2NCHCH2NHC3NC2NCH2NHC5HC4H3C2O2C3H5NHC3H4CH2NHC7H2C2O2C3NC2NCHCH2NHC3NC2NCH2NHC5HC4H3C2O2C3H5NHC3H4CH2NH
_chemical_formula_sum              "C160 H104 O16 N32"
_cell_length_a       30.7922
_cell_length_b       30.7922
_cell_length_c       15.0512
_cell_angle_alpha    90
_cell_angle_beta     90
_cell_angle_gamma    90

_space_group_name_H-M_alt    "P 1"
_space_group_IT_number       1

loop_
  _space_group_symop_operation_xyz
  'x, y, z'

loop_
  _atom_site_type_symbol
  _atom_site_label
  _atom_site_symmetry_multiplicity
  _atom_site_fract_x
  _atom_site_fract_y
  _atom_site_fract_z
  _atom_site_occupancy
  C   C1        1.0  0.06040  0.99636  0.37098  1.0000
  C   C2        1.0  0.09412  0.02707  0.38490  1.0000
  C   C3        1.0  0.08683  0.07077  0.36192  1.0000
  C   C4        1.0  0.48487  0.47932  0.32637  1.0000
  C   C5        1.0  0.40908  0.46294  0.28321  1.0000
  C   C6        1.0  0.44349  0.49326  0.29442  1.0000
  C   C7        1.0  0.43864  0.03699  0.26813  1.0000
  H   H1        1.0  0.09469  0.44121  0.41939  1.0000
  H   H2        1.0  0.41070  0.04773  0.23874  1.0000
  C   C8        1.0  0.13718  0.01586  0.40792  1.0000
  C   C9        1.0  0.36601  0.47457  0.25999  1.0000
  O   O1        1.0  0.15640  0.04255  0.46800  1.0000
  O   O2        1.0  0.34290  0.44470  0.21312  1.0000
  C   C10       1.0  0.01336  0.22011  0.25200  1.0000
  C   C11       1.0  0.00970  0.26594  0.24678  1.0000
  C   C12       1.0  0.99471  0.29046  0.32045  1.0000
  N   N1        1.0  0.01729  0.28486  0.16658  1.0000
  C   C13       1.0  0.02812  0.26319  0.09109  1.0000
  C   C14       1.0  0.03101  0.21730  0.09589  1.0000
  N   N2        1.0  0.02327  0.19842  0.17593  1.0000
  C   C15       1.0  0.03453  0.28867  0.00890  1.0000
  H   H3        1.0  0.03034  0.32340  0.02101  1.0000
  C   C16       1.0  0.04084  0.18781  0.02097  1.0000
  H   H4        1.0  0.51367  0.16557  0.01106  1.0000
  H   H5        1.0  0.06984  0.16888  0.03648  1.0000
  N   N3        1.0  0.99092  0.33460  0.31484  1.0000
  H   H6        1.0  0.00794  0.34912  0.26883  1.0000
  C   C17       1.0  0.27270  0.00644  0.24109  1.0000
  C   C18       1.0  0.22689  0.00382  0.24952  1.0000
  C   C19       1.0  0.20675  0.00113  0.33431  1.0000
  N   N4        1.0  0.20309  0.00710  0.17369  1.0000
  C   C20       1.0  0.21973  0.01272  0.09091  1.0000
  C   C21       1.0  0.26549  0.01609  0.08297  1.0000
  N   N5        1.0  0.28939  0.01288  0.15852  1.0000
  C   C22       1.0  0.18903  0.01586  0.01575  1.0000
  H   H7        1.0  0.15542  0.01267  0.03804  1.0000
  H   H8        1.0  0.30904  0.05324  0.00592  1.0000
  N   N6        1.0  0.16240  0.99946  0.34095  1.0000
  H   H9        1.0  0.14689  0.99051  0.28729  1.0000
  C   C23       1.0  0.01910  0.01028  0.33871  1.0000
  C   C24       1.0  0.04664  0.08571  0.32932  1.0000
  C   C25       1.0  0.01237  0.05506  0.31775  1.0000
  C   C26       1.0  0.06612  0.45216  0.39293  1.0000
  C   C27       1.0  0.47235  0.06690  0.27852  1.0000
  H   H10       1.0  0.11175  0.09252  0.37005  1.0000
  C   C28       1.0  0.49172  0.43450  0.34668  1.0000
  C   C29       1.0  0.45702  0.40423  0.33728  1.0000
  C   C30       1.0  0.41666  0.41921  0.30559  1.0000
  C   C31       1.0  0.03248  0.42213  0.38191  1.0000
  H   H11       1.0  0.39166  0.39744  0.29915  1.0000
  H   H12       1.0  0.03832  0.39101  0.40206  1.0000
  H   H13       1.0  0.46702  0.09750  0.25489  1.0000
  C   C32       1.0  0.04286  0.13074  0.31131  1.0000
  C   C33       1.0  0.46037  0.35936  0.35660  1.0000
  O   O3        1.0  0.07938  0.15295  0.28851  1.0000
  O   O4        1.0  0.42423  0.33887  0.38719  1.0000
  C   C34       1.0  0.50332  0.19781  0.33195  1.0000
  C   C35       1.0  0.48311  0.26752  0.39848  1.0000
  C   C36       1.0  0.48634  0.22218  0.40345  1.0000
  H   H14       1.0  0.47911  0.20735  0.46250  1.0000
  H   H15       1.0  0.47387  0.28381  0.45452  1.0000
  H   H16       1.0  0.01091  0.27871  0.62550  1.0000
  H   H17       1.0  0.06726  0.28344  0.64999  1.0000
  H   H18       1.0  0.04655  0.20499  0.62544  1.0000
  N   N7        1.0  0.50871  0.15419  0.34317  1.0000
  H   H19       1.0  0.49146  0.14013  0.38953  1.0000
  C   C37       1.0  0.29980  0.50548  0.31715  1.0000
  C   C38       1.0  0.23429  0.50192  0.40962  1.0000
  C   C39       1.0  0.27957  0.50511  0.40140  1.0000
  H   H20       1.0  0.29802  0.50314  0.45777  1.0000
  H   H21       1.0  0.22187  0.49768  0.47184  1.0000
  H   H22       1.0  0.19557  0.99000  0.63474  1.0000
  H   H23       1.0  0.19252  0.04729  0.64972  1.0000
  C   C40       1.0  0.28973  0.02367  0.66634  1.0000
  H   H24       1.0  0.26850  0.02733  0.60906  1.0000
  H   H25       1.0  0.31153  0.49637  0.65402  1.0000
  N   N8        1.0  0.34405  0.50282  0.31377  1.0000
  H   H26       1.0  0.35964  0.51302  0.36646  1.0000
  C   C41       1.0  0.06040  0.49636  0.37098  1.0000
  C   C42       1.0  0.09412  0.52707  0.38490  1.0000
  C   C43       1.0  0.08683  0.57077  0.36192  1.0000
  C   C44       1.0  0.48487  0.97932  0.32637  1.0000
  C   C45       1.0  0.40908  0.96294  0.28321  1.0000
  C   C46       1.0  0.44349  0.99326  0.29442  1.0000
  C   C47       1.0  0.43864  0.53699  0.26813  1.0000
  H   H27       1.0  0.09469  0.94121  0.41939  1.0000
  H   H28       1.0  0.41070  0.54773  0.23874  1.0000
  C   C48       1.0  0.13718  0.51586  0.40792  1.0000
  C   C49       1.0  0.36601  0.97456  0.25999  1.0000
  O   O5        1.0  0.15640  0.54255  0.46800  1.0000
  O   O6        1.0  0.34290  0.94470  0.21312  1.0000
  C   C50       1.0  0.01336  0.72011  0.25200  1.0000
  C   C51       1.0  0.00970  0.76594  0.24678  1.0000
  C   C52       1.0  0.99471  0.79046  0.32045  1.0000
  N   N9        1.0  0.01729  0.78486  0.16658  1.0000
  C   C53       1.0  0.02812  0.76319  0.09109  1.0000
  C   C54       1.0  0.03101  0.71730  0.09589  1.0000
  N   N10       1.0  0.02327  0.69842  0.17593  1.0000
  C   C55       1.0  0.03453  0.78867  0.00890  1.0000
  H   H29       1.0  0.03034  0.82340  0.02101  1.0000
  C   C56       1.0  0.04084  0.68781  0.02097  1.0000
  H   H30       1.0  0.51367  0.66557  0.01106  1.0000
  H   H31       1.0  0.06984  0.66888  0.03648  1.0000
  N   N11       1.0  0.99092  0.83460  0.31484  1.0000
  H   H32       1.0  0.00794  0.84912  0.26883  1.0000
  C   C57       1.0  0.27270  0.50644  0.24109  1.0000
  C   C58       1.0  0.22689  0.50382  0.24952  1.0000
  C   C59       1.0  0.20675  0.50113  0.33431  1.0000
  N   N12       1.0  0.20309  0.50710  0.17369  1.0000
  C   C60       1.0  0.21973  0.51272  0.09091  1.0000
  C   C61       1.0  0.26549  0.51609  0.08297  1.0000
  N   N13       1.0  0.28939  0.51288  0.15852  1.0000
  C   C62       1.0  0.18903  0.51586  0.01575  1.0000
  H   H33       1.0  0.15542  0.51267  0.03804  1.0000
  H   H34       1.0  0.30904  0.55324  0.00592  1.0000
  N   N14       1.0  0.16240  0.49946  0.34095  1.0000
  H   H35       1.0  0.14689  0.49051  0.28729  1.0000
  C   C63       1.0  0.01910  0.51028  0.33871  1.0000
  C   C64       1.0  0.04664  0.58571  0.32932  1.0000
  C   C65       1.0  0.01237  0.55506  0.31775  1.0000
  C   C66       1.0  0.06612  0.95216  0.39293  1.0000
  C   C67       1.0  0.47235  0.56690  0.27852  1.0000
  H   H36       1.0  0.11175  0.59252  0.37005  1.0000
  C   C68       1.0  0.49172  0.93451  0.34668  1.0000
  C   C69       1.0  0.45702  0.90423  0.33728  1.0000
  C   C70       1.0  0.41666  0.91921  0.30559  1.0000
  C   C71       1.0  0.03248  0.92213  0.38191  1.0000
  H   H37       1.0  0.39166  0.89744  0.29915  1.0000
  H   H38       1.0  0.03832  0.89100  0.40206  1.0000
  H   H39       1.0  0.46702  0.59749  0.25489  1.0000
  C   C72       1.0  0.04286  0.63074  0.31131  1.0000
  C   C73       1.0  0.46037  0.85936  0.35660  1.0000
  O   O7        1.0  0.07938  0.65295  0.28851  1.0000
  O   O8        1.0  0.42423  0.83886  0.38719  1.0000
  C   C74       1.0  0.50332  0.69781  0.33195  1.0000
  C   C75       1.0  0.48311  0.76752  0.39848  1.0000
  C   C76       1.0  0.48634  0.72219  0.40345  1.0000
  H   H40       1.0  0.47911  0.70735  0.46250  1.0000
  H   H41       1.0  0.47387  0.78381  0.45452  1.0000
  H   H42       1.0  0.01091  0.77871  0.62550  1.0000
  H   H43       1.0  0.06726  0.78345  0.64999  1.0000
  H   H44       1.0  0.04655  0.70499  0.62544  1.0000
  N   N15       1.0  0.50871  0.65419  0.34317  1.0000
  H   H45       1.0  0.49146  0.64013  0.38953  1.0000
  C   C77       1.0  0.29980  0.00548  0.31715  1.0000
  C   C78       1.0  0.23429  0.00192  0.40962  1.0000
  C   C79       1.0  0.27957  0.00510  0.40140  1.0000
  H   H46       1.0  0.29802  0.00314  0.45777  1.0000
  H   H47       1.0  0.22187  0.99768  0.47184  1.0000
  H   H48       1.0  0.19557  0.49000  0.63474  1.0000
  H   H49       1.0  0.19252  0.54729  0.64972  1.0000
  C   C80       1.0  0.28973  0.52367  0.66634  1.0000
  H   H50       1.0  0.26850  0.52733  0.60906  1.0000
  H   H51       1.0  0.31153  0.99637  0.65402  1.0000
  N   N16       1.0  0.34405  0.00282  0.31377  1.0000
  H   H52       1.0  0.35964  0.01302  0.36646  1.0000
  C   C81       1.0  0.56040  0.99636  0.37098  1.0000
  C   C82       1.0  0.59412  0.02707  0.38490  1.0000
  C   C83       1.0  0.58683  0.07077  0.36192  1.0000
  C   C84       1.0  0.98487  0.47932  0.32637  1.0000
  C   C85       1.0  0.90908  0.46294  0.28321  1.0000
  C   C86       1.0  0.94349  0.49326  0.29442  1.0000
  C   C87       1.0  0.93864  0.03699  0.26813  1.0000
  H   H53       1.0  0.59470  0.44121  0.41939  1.0000
  H   H54       1.0  0.91069  0.04773  0.23874  1.0000
  C   C88       1.0  0.63718  0.01586  0.40792  1.0000
  C   C89       1.0  0.86601  0.47457  0.25999  1.0000
  O   O9        1.0  0.65640  0.04255  0.46800  1.0000
  O   O10       1.0  0.84290  0.44470  0.21312  1.0000
  C   C90       1.0  0.51336  0.22011  0.25200  1.0000
  C   C91       1.0  0.50970  0.26594  0.24678  1.0000
  C   C92       1.0  0.49471  0.29046  0.32045  1.0000
  N   N17       1.0  0.51730  0.28486  0.16658  1.0000
  C   C93       1.0  0.52812  0.26319  0.09109  1.0000
  C   C94       1.0  0.53101  0.21730  0.09589  1.0000
  N   N18       1.0  0.52327  0.19842  0.17593  1.0000
  C   C95       1.0  0.53453  0.28867  0.00890  1.0000
  H   H55       1.0  0.53034  0.32340  0.02101  1.0000
  C   C96       1.0  0.54084  0.18781  0.02097  1.0000
  H   H56       1.0  0.01367  0.16557  0.01106  1.0000
  H   H57       1.0  0.56984  0.16888  0.03648  1.0000
  N   N19       1.0  0.49092  0.33460  0.31484  1.0000
  H   H58       1.0  0.50794  0.34912  0.26883  1.0000
  C   C97       1.0  0.77270  0.00644  0.24109  1.0000
  C   C98       1.0  0.72689  0.00382  0.24952  1.0000
  C   C99       1.0  0.70675  0.00113  0.33431  1.0000
  N   N20       1.0  0.70309  0.00710  0.17369  1.0000
  C   C100      1.0  0.71973  0.01272  0.09091  1.0000
  C   C101      1.0  0.76548  0.01609  0.08297  1.0000
  N   N21       1.0  0.78939  0.01288  0.15852  1.0000
  C   C102      1.0  0.68903  0.01586  0.01575  1.0000
  H   H59       1.0  0.65541  0.01267  0.03804  1.0000
  H   H60       1.0  0.80904  0.05324  0.00592  1.0000
  N   N22       1.0  0.66240  0.99946  0.34095  1.0000
  H   H61       1.0  0.64689  0.99051  0.28729  1.0000
  C   C103      1.0  0.51910  0.01028  0.33871  1.0000
  C   C104      1.0  0.54663  0.08571  0.32932  1.0000
  C   C105      1.0  0.51237  0.05506  0.31775  1.0000
  C   C106      1.0  0.56612  0.45216  0.39293  1.0000
  C   C107      1.0  0.97235  0.06690  0.27852  1.0000
  H   H62       1.0  0.61175  0.09252  0.37005  1.0000
  C   C108      1.0  0.99172  0.43450  0.34668  1.0000
  C   C109      1.0  0.95702  0.40423  0.33728  1.0000
  C   C110      1.0  0.91666  0.41921  0.30559  1.0000
  C   C111      1.0  0.53248  0.42213  0.38191  1.0000
  H   H63       1.0  0.89166  0.39744  0.29915  1.0000
  H   H64       1.0  0.53832  0.39101  0.40206  1.0000
  H   H65       1.0  0.96702  0.09750  0.25489  1.0000
  C   C112      1.0  0.54286  0.13074  0.31131  1.0000
  C   C113      1.0  0.96037  0.35936  0.35660  1.0000
  O   O11       1.0  0.57938  0.15295  0.28851  1.0000
  O   O12       1.0  0.92423  0.33887  0.38719  1.0000
  C   C114      1.0  0.00332  0.19781  0.33195  1.0000
  C   C115      1.0  0.98311  0.26752  0.39848  1.0000
  C   C116      1.0  0.98634  0.22218  0.40345  1.0000
  H   H66       1.0  0.97911  0.20735  0.46250  1.0000
  H   H67       1.0  0.97387  0.28381  0.45452  1.0000
  H   H68       1.0  0.51091  0.27871  0.62550  1.0000
  H   H69       1.0  0.56726  0.28344  0.64999  1.0000
  H   H70       1.0  0.54655  0.20499  0.62544  1.0000
  N   N23       1.0  0.00871  0.15419  0.34317  1.0000
  H   H71       1.0  0.99147  0.14013  0.38953  1.0000
  C   C117      1.0  0.79980  0.50548  0.31715  1.0000
  C   C118      1.0  0.73429  0.50192  0.40962  1.0000
  C   C119      1.0  0.77957  0.50511  0.40140  1.0000
  H   H72       1.0  0.79802  0.50314  0.45777  1.0000
  H   H73       1.0  0.72187  0.49768  0.47184  1.0000
  H   H74       1.0  0.69557  0.99000  0.63474  1.0000
  H   H75       1.0  0.69252  0.04729  0.64972  1.0000
  C   C120      1.0  0.78973  0.02367  0.66634  1.0000
  H   H76       1.0  0.76850  0.02733  0.60906  1.0000
  H   H77       1.0  0.81153  0.49637  0.65402  1.0000
  N   N24       1.0  0.84405  0.50282  0.31377  1.0000
  H   H78       1.0  0.85964  0.51302  0.36646  1.0000
  C   C121      1.0  0.56040  0.49636  0.37098  1.0000
  C   C122      1.0  0.59412  0.52707  0.38490  1.0000
  C   C123      1.0  0.58683  0.57077  0.36192  1.0000
  C   C124      1.0  0.98487  0.97932  0.32637  1.0000
  C   C125      1.0  0.90908  0.96294  0.28321  1.0000
  C   C126      1.0  0.94349  0.99326  0.29442  1.0000
  C   C127      1.0  0.93864  0.53699  0.26813  1.0000
  H   H79       1.0  0.59470  0.94121  0.41939  1.0000
  H   H80       1.0  0.91069  0.54773  0.23874  1.0000
  C   C128      1.0  0.63718  0.51586  0.40792  1.0000
  C   C129      1.0  0.86601  0.97456  0.25999  1.0000
  O   O13       1.0  0.65640  0.54255  0.46800  1.0000
  O   O14       1.0  0.84290  0.94470  0.21312  1.0000
  C   C130      1.0  0.51336  0.72011  0.25200  1.0000
  C   C131      1.0  0.50970  0.76594  0.24678  1.0000
  C   C132      1.0  0.49471  0.79046  0.32045  1.0000
  N   N25       1.0  0.51730  0.78486  0.16658  1.0000
  C   C133      1.0  0.52812  0.76319  0.09109  1.0000
  C   C134      1.0  0.53101  0.71730  0.09589  1.0000
  N   N26       1.0  0.52327  0.69842  0.17593  1.0000
  C   C135      1.0  0.53453  0.78867  0.00890  1.0000
  H   H81       1.0  0.53034  0.82340  0.02101  1.0000
  C   C136      1.0  0.54084  0.68781  0.02097  1.0000
  H   H82       1.0  0.01367  0.66557  0.01106  1.0000
  H   H83       1.0  0.56984  0.66888  0.03648  1.0000
  N   N27       1.0  0.49092  0.83460  0.31484  1.0000
  H   H84       1.0  0.50794  0.84912  0.26883  1.0000
  C   C137      1.0  0.77270  0.50644  0.24109  1.0000
  C   C138      1.0  0.72689  0.50382  0.24952  1.0000
  C   C139      1.0  0.70675  0.50113  0.33431  1.0000
  N   N28       1.0  0.70309  0.50710  0.17369  1.0000
  C   C140      1.0  0.71973  0.51272  0.09091  1.0000
  C   C141      1.0  0.76548  0.51609  0.08297  1.0000
  N   N29       1.0  0.78939  0.51288  0.15852  1.0000
  C   C142      1.0  0.68903  0.51586  0.01575  1.0000
  H   H85       1.0  0.65541  0.51267  0.03804  1.0000
  H   H86       1.0  0.80904  0.55324  0.00592  1.0000
  N   N30       1.0  0.66240  0.49946  0.34095  1.0000
  H   H87       1.0  0.64689  0.49051  0.28729  1.0000
  C   C143      1.0  0.51910  0.51028  0.33871  1.0000
  C   C144      1.0  0.54663  0.58571  0.32932  1.0000
  C   C145      1.0  0.51237  0.55506  0.31775  1.0000
  C   C146      1.0  0.56612  0.95216  0.39293  1.0000
  C   C147      1.0  0.97235  0.56690  0.27852  1.0000
  H   H88       1.0  0.61175  0.59252  0.37005  1.0000
  C   C148      1.0  0.99172  0.93451  0.34668  1.0000
  C   C149      1.0  0.95702  0.90423  0.33728  1.0000
  C   C150      1.0  0.91666  0.91921  0.30559  1.0000
  C   C151      1.0  0.53248  0.92213  0.38191  1.0000
  H   H89       1.0  0.89166  0.89744  0.29915  1.0000
  H   H90       1.0  0.53832  0.89100  0.40206  1.0000
  H   H91       1.0  0.96702  0.59749  0.25489  1.0000
  C   C152      1.0  0.54286  0.63074  0.31131  1.0000
  C   C153      1.0  0.96037  0.85936  0.35660  1.0000
  O   O15       1.0  0.57938  0.65295  0.28851  1.0000
  O   O16       1.0  0.92423  0.83886  0.38719  1.0000
  C   C154      1.0  0.00332  0.69781  0.33195  1.0000
  C   C155      1.0  0.98311  0.76752  0.39848  1.0000
  C   C156      1.0  0.98634  0.72219  0.40345  1.0000
  H   H92       1.0  0.97911  0.70735  0.46250  1.0000
  H   H93       1.0  0.97387  0.78381  0.45452  1.0000
  H   H94       1.0  0.51091  0.77871  0.62550  1.0000
  H   H95       1.0  0.56726  0.78345  0.64999  1.0000
  H   H96       1.0  0.54655  0.70499  0.62544  1.0000
  N   N31       1.0  0.00871  0.65419  0.34317  1.0000
  H   H97       1.0  0.99147  0.64013  0.38953  1.0000
  C   C157      1.0  0.79980  0.00548  0.31715  1.0000
  C   C158      1.0  0.73429  0.00192  0.40962  1.0000
  C   C159      1.0  0.77957  0.00510  0.40140  1.0000
  H   H98       1.0  0.79802  0.00314  0.45777  1.0000
  H   H99       1.0  0.72187  0.99768  0.47184  1.0000
  H   H100      1.0  0.69557  0.49000  0.63474  1.0000
  H   H101      1.0  0.69252  0.54729  0.64972  1.0000
  C   C160      1.0  0.78973  0.52367  0.66634  1.0000
  H   H102      1.0  0.76850  0.52733  0.60906  1.0000
  H   H103      1.0  0.81153  0.99637  0.65402  1.0000
  N   N32       1.0  0.84405  0.00282  0.31377  1.0000
  H   H104      1.0  0.85964  0.01302  0.36646  1.0000
