data_image0
_chemical_formula_structural       C5H6C6H6C6H6C6H6C4HCH3NC3HCH3NC3HCH3NC3HCH3NC3HCH3NC3HCH3NC12H6C6H3C9H3C12H6C6H3C9H3C12H6C6H3C9H3C12H6C6H3C9H3C3HCH3NC3HCH3NC3HCH3NC3HCH3NC3HCH3NC3HCH3N
_chemical_formula_sum              "C180 H120 N12"
_cell_length_a       70.7058
_cell_length_b       70.7087
_cell_length_c       14.7524
_cell_angle_alpha    90
_cell_angle_beta     90
_cell_angle_gamma    119.998

_space_group_name_H-M_alt    "P 1"
_space_group_IT_number       1

loop_
  _space_group_symop_operation_xyz
  'x, y, z'

loop_
  _atom_site_type_symbol
  _atom_site_label
  _atom_site_symmetry_multiplicity
  _atom_site_fract_x
  _atom_site_fract_y
  _atom_site_fract_z
  _atom_site_occupancy
  C   C1        1.0  0.96658  0.06614  0.32244  1.0000
  C   C2        1.0  0.94307  0.90458  0.32099  1.0000
  C   C3        1.0  0.93351  0.88171  0.32986  1.0000
  C   C4        1.0  0.10445  0.04265  0.32095  1.0000
  C   C5        1.0  0.12733  0.05596  0.32982  1.0000
  H   H1        1.0  0.95908  0.09125  0.30770  1.0000
  H   H2        1.0  0.93436  0.91073  0.28962  1.0000
  H   H3        1.0  0.91809  0.87196  0.30496  1.0000
  H   H4        1.0  0.09831  0.02779  0.28957  1.0000
  H   H5        1.0  0.13708  0.05029  0.30495  1.0000
  H   H6        1.0  0.98161  0.07500  0.29257  1.0000
  C   C6        1.0  0.95324  0.07568  0.33111  1.0000
  C   C7        1.0  0.50552  0.30822  0.33959  1.0000
  C   C8        1.0  0.33380  0.18115  0.33220  1.0000
  C   C9        1.0  0.31088  0.16755  0.33493  1.0000
  C   C10       1.0  0.49023  0.17392  0.33568  1.0000
  C   C11       1.0  0.50991  0.17359  0.34634  1.0000
  H   H7        1.0  0.53819  0.33323  0.33494  1.0000
  H   H8        1.0  0.34019  0.19731  0.31606  1.0000
  H   H9        1.0  0.30139  0.17434  0.32075  1.0000
  H   H10       1.0  0.47690  0.16051  0.30893  1.0000
  H   H11       1.0  0.51028  0.15984  0.32766  1.0000
  H   H12       1.0  0.50949  0.29617  0.33359  1.0000
  C   C12       1.0  0.52247  0.33015  0.34044  1.0000
  C   C13       1.0  0.70083  0.20149  0.33960  1.0000
  C   C14       1.0  0.82791  0.15683  0.33216  1.0000
  C   C15       1.0  0.84151  0.14751  0.33491  1.0000
  C   C16       1.0  0.83516  0.32049  0.33577  1.0000
  C   C17       1.0  0.83550  0.34050  0.34645  1.0000
  H   H13       1.0  0.67582  0.20915  0.33491  1.0000
  H   H14       1.0  0.81176  0.14707  0.31598  1.0000
  H   H15       1.0  0.83472  0.13123  0.32071  1.0000
  H   H16       1.0  0.84859  0.32058  0.30914  1.0000
  H   H17       1.0  0.84927  0.35462  0.32798  1.0000
  H   H18       1.0  0.71288  0.21751  0.33359  1.0000
  C   C18       1.0  0.67891  0.19651  0.34043  1.0000
  C   C19       1.0  0.80757  0.50352  0.33938  1.0000
  C   C20       1.0  0.85221  0.67524  0.33215  1.0000
  C   C21       1.0  0.86153  0.69815  0.33491  1.0000
  C   C22       1.0  0.68858  0.51876  0.33528  1.0000
  C   C23       1.0  0.66858  0.49908  0.34590  1.0000
  H   H19       1.0  0.79990  0.47085  0.33454  1.0000
  H   H20       1.0  0.86198  0.66885  0.31594  1.0000
  H   H21       1.0  0.87781  0.70765  0.32067  1.0000
  H   H22       1.0  0.68849  0.53206  0.30824  1.0000
  H   H23       1.0  0.65446  0.49868  0.32692  1.0000
  H   H24       1.0  0.79155  0.49956  0.33317  1.0000
  C   C24       1.0  0.81253  0.48656  0.34024  1.0000
  C   C25       1.0  0.24260  0.12456  0.34208  1.0000
  C   C26       1.0  0.23079  0.11278  0.26382  1.0000
  C   C27       1.0  0.20767  0.10053  0.26718  1.0000
  H   H25       1.0  0.19916  0.09211  0.21077  1.0000
  C   C28       1.0  0.24148  0.11268  0.17703  1.0000
  H   H26       1.0  0.25922  0.12271  0.17898  1.0000
  H   H27       1.0  0.23562  0.11887  0.12248  1.0000
  H   H28       1.0  0.23740  0.09600  0.16062  1.0000
  N   N1        1.0  0.26440  0.13688  0.34013  1.0000
  C   C29       1.0  0.88451  0.12223  0.34196  1.0000
  C   C30       1.0  0.89636  0.12228  0.26378  1.0000
  C   C31       1.0  0.90860  0.11141  0.26708  1.0000
  H   H29       1.0  0.91708  0.11138  0.21074  1.0000
  C   C32       1.0  0.89652  0.13315  0.17713  1.0000
  H   H30       1.0  0.88648  0.14084  0.17910  1.0000
  H   H31       1.0  0.89038  0.12115  0.12238  1.0000
  H   H32       1.0  0.91321  0.14576  0.16101  1.0000
  N   N2        1.0  0.87219  0.13170  0.34003  1.0000
  C   C33       1.0  0.88682  0.76644  0.34208  1.0000
  C   C34       1.0  0.88685  0.77824  0.26381  1.0000
  C   C35       1.0  0.89772  0.80136  0.26716  1.0000
  H   H33       1.0  0.89781  0.80987  0.21075  1.0000
  C   C36       1.0  0.87605  0.76755  0.17703  1.0000
  H   H34       1.0  0.86834  0.74981  0.17900  1.0000
  H   H35       1.0  0.88811  0.77341  0.12248  1.0000
  H   H36       1.0  0.86347  0.77164  0.16061  1.0000
  N   N3        1.0  0.87734  0.74464  0.34011  1.0000
  C   C37       1.0  0.57314  0.18034  0.35293  1.0000
  C   C38       1.0  0.58167  0.17732  0.27142  1.0000
  C   C39       1.0  0.60197  0.17792  0.26874  1.0000
  H   H37       1.0  0.57326  0.17544  0.21243  1.0000
  C   C40       1.0  0.61078  0.17564  0.18032  1.0000
  H   H38       1.0  0.60002  0.17361  0.12348  1.0000
  H   H39       1.0  0.61291  0.16139  0.18209  1.0000
  H   H40       1.0  0.62657  0.19017  0.16730  1.0000
  N   N4        1.0  0.55461  0.18104  0.34894  1.0000
  C   C41       1.0  0.82870  0.39696  0.35291  1.0000
  C   C42       1.0  0.83169  0.40849  0.27139  1.0000
  C   C43       1.0  0.83108  0.42819  0.26868  1.0000
  H   H41       1.0  0.83356  0.40195  0.21239  1.0000
  C   C44       1.0  0.83333  0.43926  0.18024  1.0000
  H   H42       1.0  0.83537  0.43053  0.12340  1.0000
  H   H43       1.0  0.84758  0.45565  0.18195  1.0000
  H   H44       1.0  0.81880  0.44051  0.16726  1.0000
  N   N5        1.0  0.82801  0.37774  0.34895  1.0000
  C   C45       1.0  0.61208  0.43589  0.35291  1.0000
  C   C46       1.0  0.60052  0.42739  0.27144  1.0000
  C   C47       1.0  0.58080  0.40709  0.26874  1.0000
  H   H45       1.0  0.60703  0.43582  0.21248  1.0000
  C   C48       1.0  0.56969  0.39831  0.18035  1.0000
  H   H46       1.0  0.57840  0.40909  0.12353  1.0000
  H   H47       1.0  0.55331  0.39620  0.18226  1.0000
  H   H48       1.0  0.56841  0.38253  0.16719  1.0000
  N   N6        1.0  0.63131  0.45442  0.34895  1.0000
  C   C49       1.0  0.96418  0.91879  0.35560  1.0000
  C   C50       1.0  0.95946  0.04482  0.35520  1.0000
  C   C51       1.0  0.09024  0.04955  0.35562  1.0000
  C   C52       1.0  0.93242  0.06427  0.37291  1.0000
  C   C53       1.0  0.92548  0.04288  0.40511  1.0000
  C   C54       1.0  0.93869  0.03328  0.39637  1.0000
  C   C55       1.0  0.94471  0.87232  0.37360  1.0000
  C   C56       1.0  0.96590  0.88678  0.40765  1.0000
  C   C57       1.0  0.97551  0.90959  0.39880  1.0000
  C   C58       1.0  0.13671  0.07655  0.37365  1.0000
  C   C59       1.0  0.12225  0.08327  0.40772  1.0000
  C   C60       1.0  0.09944  0.07007  0.39884  1.0000
  H   H49       1.0  0.91059  0.03397  0.43601  1.0000
  H   H50       1.0  0.93298  0.01782  0.42118  1.0000
  H   H51       1.0  0.99083  0.91936  0.42494  1.0000
  H   H52       1.0  0.97466  0.88082  0.43998  1.0000
  H   H53       1.0  0.12821  0.09798  0.44010  1.0000
  H   H54       1.0  0.08966  0.07562  0.42502  1.0000
  C   C61       1.0  0.02786  0.01605  0.34537  1.0000
  C   C62       1.0  0.01619  0.99294  0.34548  1.0000
  C   C63       1.0  0.99307  0.98117  0.34538  1.0000
  C   C64       1.0  0.98162  0.99283  0.34546  1.0000
  C   C65       1.0  0.99297  0.01595  0.34536  1.0000
  C   C66       1.0  0.01609  0.02741  0.34546  1.0000
  H   H55       1.0  0.96484  0.98440  0.34593  1.0000
  H   H56       1.0  0.02463  0.98459  0.34598  1.0000
  H   H57       1.0  0.02443  0.04418  0.34592  1.0000
  C   C67       1.0  0.06890  0.03729  0.34943  1.0000
  C   C68       1.0  0.04934  0.02689  0.34660  1.0000
  C   C69       1.0  0.97173  0.03575  0.34923  1.0000
  C   C70       1.0  0.98213  0.02660  0.34652  1.0000
  C   C71       1.0  0.98243  0.95969  0.34660  1.0000
  C   C72       1.0  0.97327  0.94013  0.34943  1.0000
  C   C73       1.0  0.15922  0.08996  0.38675  1.0000
  C   C74       1.0  0.93562  0.84981  0.38666  1.0000
  C   C75       1.0  0.91900  0.07334  0.38596  1.0000
  H   H58       1.0  0.90690  0.06615  0.43065  1.0000
  H   H59       1.0  0.94270  0.84490  0.43187  1.0000
  H   H60       1.0  0.16412  0.10194  0.43197  1.0000
  C   C76       1.0  0.34768  0.17264  0.35145  1.0000
  C   C77       1.0  0.48353  0.30300  0.34713  1.0000
  C   C78       1.0  0.48895  0.19245  0.36213  1.0000
  C   C79       1.0  0.51800  0.34752  0.34890  1.0000
  C   C80       1.0  0.49583  0.34201  0.35629  1.0000
  C   C81       1.0  0.47880  0.32009  0.35548  1.0000
  C   C82       1.0  0.30110  0.14506  0.35691  1.0000
  C   C83       1.0  0.31527  0.13679  0.37610  1.0000
  C   C84       1.0  0.33814  0.15029  0.37343  1.0000
  C   C85       1.0  0.52872  0.19173  0.38352  1.0000
  C   C86       1.0  0.52721  0.21022  0.40931  1.0000
  C   C87       1.0  0.50767  0.21064  0.39857  1.0000
  H   H61       1.0  0.49180  0.35399  0.36269  1.0000
  H   H62       1.0  0.46299  0.31679  0.36125  1.0000
  H   H63       1.0  0.34771  0.14355  0.38780  1.0000
  H   H64       1.0  0.30904  0.12066  0.39238  1.0000
  H   H65       1.0  0.54042  0.22371  0.43638  1.0000
  H   H66       1.0  0.50734  0.22439  0.41813  1.0000
  C   C88       1.0  0.44516  0.20764  0.34657  1.0000
  C   C89       1.0  0.42208  0.19575  0.34711  1.0000
  C   C90       1.0  0.40999  0.20681  0.34700  1.0000
  C   C91       1.0  0.42126  0.22994  0.34672  1.0000
  C   C92       1.0  0.44434  0.24195  0.34643  1.0000
  C   C93       1.0  0.45613  0.23069  0.34637  1.0000
  H   H67       1.0  0.41265  0.23809  0.34693  1.0000
  H   H68       1.0  0.41408  0.17899  0.34788  1.0000
  H   H69       1.0  0.47294  0.23941  0.34656  1.0000
  C   C94       1.0  0.47110  0.19350  0.35306  1.0000
  C   C95       1.0  0.45704  0.19819  0.34849  1.0000
  C   C96       1.0  0.46797  0.28255  0.34691  1.0000
  C   C97       1.0  0.45538  0.26331  0.34667  1.0000
  C   C98       1.0  0.38856  0.19567  0.34787  1.0000
  C   C99       1.0  0.36902  0.18504  0.34916  1.0000
  C   C100      1.0  0.54824  0.19188  0.39796  1.0000
  C   C101      1.0  0.27846  0.13104  0.36078  1.0000
  C   C102      1.0  0.53452  0.36940  0.35071  1.0000
  H   H70       1.0  0.53046  0.38099  0.35507  1.0000
  H   H71       1.0  0.27282  0.11565  0.38050  1.0000
  H   H72       1.0  0.55826  0.20181  0.44560  1.0000
  C   C103      1.0  0.83642  0.17922  0.35144  1.0000
  C   C104      1.0  0.70606  0.18471  0.34714  1.0000
  C   C105      1.0  0.81662  0.30069  0.36204  1.0000
  C   C106      1.0  0.66154  0.17467  0.34889  1.0000
  C   C107      1.0  0.66705  0.15801  0.35628  1.0000
  C   C108      1.0  0.68897  0.16290  0.35549  1.0000
  C   C109      1.0  0.86400  0.16022  0.35695  1.0000
  C   C110      1.0  0.87227  0.18266  0.37614  1.0000
  C   C111      1.0  0.85877  0.19204  0.37346  1.0000
  C   C112      1.0  0.81735  0.34117  0.38353  1.0000
  C   C113      1.0  0.79884  0.32117  0.40914  1.0000
  C   C114      1.0  0.79841  0.30121  0.39834  1.0000
  H   H73       1.0  0.65507  0.14200  0.36269  1.0000
  H   H74       1.0  0.69227  0.15039  0.36127  1.0000
  H   H75       1.0  0.86551  0.20833  0.38784  1.0000
  H   H76       1.0  0.88839  0.19255  0.39246  1.0000
  H   H77       1.0  0.78535  0.32090  0.43615  1.0000
  H   H78       1.0  0.78465  0.28713  0.41779  1.0000
  C   C115      1.0  0.80142  0.24171  0.34659  1.0000
  C   C116      1.0  0.81331  0.23051  0.34708  1.0000
  C   C117      1.0  0.80226  0.20737  0.34698  1.0000
  C   C118      1.0  0.77912  0.19551  0.34670  1.0000
  C   C119      1.0  0.76711  0.20658  0.34643  1.0000
  C   C120      1.0  0.77838  0.22962  0.34638  1.0000
  H   H79       1.0  0.77097  0.17874  0.34694  1.0000
  H   H80       1.0  0.83007  0.23927  0.34784  1.0000
  H   H81       1.0  0.76966  0.23772  0.34657  1.0000
  C   C121      1.0  0.81557  0.28178  0.35299  1.0000
  C   C122      1.0  0.81088  0.26304  0.34845  1.0000
  C   C123      1.0  0.72651  0.18961  0.34693  1.0000
  C   C124      1.0  0.74575  0.19625  0.34668  1.0000
  C   C125      1.0  0.81339  0.19707  0.34784  1.0000
  C   C126      1.0  0.82402  0.18815  0.34914  1.0000
  C   C127      1.0  0.81722  0.36055  0.39813  1.0000
  C   C128      1.0  0.87801  0.15159  0.36082  1.0000
  C   C129      1.0  0.63966  0.16930  0.35067  1.0000
  H   H82       1.0  0.62807  0.15365  0.35495  1.0000
  H   H83       1.0  0.89340  0.16134  0.38062  1.0000
  H   H84       1.0  0.80730  0.36063  0.44583  1.0000
  C   C130      1.0  0.82983  0.66136  0.35147  1.0000
  C   C131      1.0  0.82434  0.52551  0.34716  1.0000
  C   C132      1.0  0.70837  0.52008  0.36215  1.0000
  C   C133      1.0  0.83437  0.49102  0.34898  1.0000
  C   C134      1.0  0.85103  0.51318  0.35661  1.0000
  C   C135      1.0  0.84614  0.53022  0.35579  1.0000
  C   C136      1.0  0.84882  0.70793  0.35699  1.0000
  C   C137      1.0  0.82639  0.69377  0.37624  1.0000
  C   C138      1.0  0.81701  0.67089  0.37355  1.0000
  C   C139      1.0  0.66791  0.48030  0.38348  1.0000
  C   C140      1.0  0.68790  0.48185  0.40967  1.0000
  C   C141      1.0  0.70785  0.50139  0.39896  1.0000
  H   H85       1.0  0.86703  0.51721  0.36322  1.0000
  H   H86       1.0  0.85866  0.54602  0.36175  1.0000
  H   H87       1.0  0.80071  0.66133  0.38796  1.0000
  H   H88       1.0  0.81650  0.70000  0.39259  1.0000
  H   H89       1.0  0.68818  0.46867  0.43701  1.0000
  H   H90       1.0  0.72193  0.50176  0.41881  1.0000
  C   C142      1.0  0.76735  0.56387  0.34656  1.0000
  C   C143      1.0  0.77854  0.58696  0.34708  1.0000
  C   C144      1.0  0.80168  0.59904  0.34698  1.0000
  C   C145      1.0  0.81355  0.58778  0.34670  1.0000
  C   C146      1.0  0.80248  0.56470  0.34642  1.0000
  C   C147      1.0  0.77943  0.55291  0.34636  1.0000
  H   H91       1.0  0.83032  0.59639  0.34693  1.0000
  H   H92       1.0  0.76978  0.59496  0.34786  1.0000
  H   H93       1.0  0.77134  0.53610  0.34656  1.0000
  C   C148      1.0  0.72727  0.53794  0.35306  1.0000
  C   C149      1.0  0.74602  0.55200  0.34847  1.0000
  C   C150      1.0  0.81945  0.54107  0.34693  1.0000
  C   C151      1.0  0.81281  0.55367  0.34668  1.0000
  C   C152      1.0  0.81198  0.62048  0.34785  1.0000
  C   C153      1.0  0.82090  0.64002  0.34916  1.0000
  C   C154      1.0  0.64854  0.46077  0.39784  1.0000
  C   C155      1.0  0.85745  0.73058  0.36088  1.0000
  C   C156      1.0  0.83973  0.47450  0.35079  1.0000
  H   H94       1.0  0.85537  0.47855  0.35535  1.0000
  H   H95       1.0  0.84771  0.73621  0.38071  1.0000
  H   H96       1.0  0.64846  0.45071  0.44528  1.0000
  C   C157      1.0  0.19589  0.10003  0.34506  1.0000
  C   C158      1.0  0.20791  0.11174  0.42218  1.0000
  C   C159      1.0  0.23103  0.12410  0.42177  1.0000
  H   H97       1.0  0.19967  0.11122  0.47990  1.0000
  C   C160      1.0  0.24282  0.13647  0.50439  1.0000
  H   H98       1.0  0.23178  0.13478  0.55956  1.0000
  H   H99       1.0  0.25271  0.15381  0.48831  1.0000
  H   H100      1.0  0.25351  0.13056  0.52888  1.0000
  N   N7        1.0  0.17399  0.08838  0.34155  1.0000
  C   C161      1.0  0.90904  0.10004  0.34482  1.0000
  C   C162      1.0  0.89727  0.10028  0.42185  1.0000
  C   C163      1.0  0.88490  0.11103  0.42150  1.0000
  H   H101      1.0  0.89774  0.09249  0.47946  1.0000
  C   C164      1.0  0.87247  0.11038  0.50402  1.0000
  H   H102      1.0  0.87412  0.10097  0.55908  1.0000
  H   H103      1.0  0.85514  0.10294  0.48771  1.0000
  H   H104      1.0  0.87835  0.12695  0.52876  1.0000
  N   N8        1.0  0.92069  0.08980  0.34126  1.0000
  C   C165      1.0  0.90901  0.81315  0.34504  1.0000
  C   C166      1.0  0.90869  0.80112  0.42216  1.0000
  C   C167      1.0  0.89794  0.77801  0.42176  1.0000
  H   H105      1.0  0.91643  0.80937  0.47987  1.0000
  C   C168      1.0  0.89851  0.76621  0.50439  1.0000
  H   H106      1.0  0.90787  0.77726  0.55954  1.0000
  H   H107      1.0  0.90596  0.75632  0.48829  1.0000
  H   H108      1.0  0.88192  0.75553  0.52888  1.0000
  N   N9        1.0  0.91926  0.83504  0.34151  1.0000
  C   C169      1.0  0.61380  0.18114  0.35078  1.0000
  C   C170      1.0  0.60523  0.18373  0.43415  1.0000
  C   C171      1.0  0.58488  0.18300  0.43390  1.0000
  H   H109      1.0  0.57869  0.18486  0.49381  1.0000
  C   C172      1.0  0.61667  0.18754  0.52279  1.0000
  H   H110      1.0  0.63225  0.18796  0.51788  1.0000
  H   H111      1.0  0.60638  0.17454  0.57009  1.0000
  H   H112      1.0  0.61983  0.20314  0.55099  1.0000
  N   N10       1.0  0.63385  0.18388  0.34841  1.0000
  C   C173      1.0  0.82788  0.43681  0.35073  1.0000
  C   C174      1.0  0.82533  0.42568  0.43413  1.0000
  C   C175      1.0  0.82605  0.40606  0.43390  1.0000
  H   H113      1.0  0.82422  0.39802  0.49383  1.0000
  C   C176      1.0  0.82153  0.43331  0.52277  1.0000
  H   H114      1.0  0.82110  0.44847  0.51783  1.0000
  H   H115      1.0  0.83454  0.43604  0.57000  1.0000
  H   H116      1.0  0.80594  0.42088  0.55106  1.0000
  N   N11       1.0  0.82514  0.45412  0.34831  1.0000
  C   C177      1.0  0.57221  0.39524  0.35076  1.0000
  C   C178      1.0  0.58339  0.40379  0.43411  1.0000
  C   C179      1.0  0.60302  0.42413  0.43386  1.0000
  H   H117      1.0  0.61108  0.43031  0.49376  1.0000
  C   C180      1.0  0.57579  0.39233  0.52272  1.0000
  H   H118      1.0  0.56061  0.37676  0.51780  1.0000
  H   H119      1.0  0.57309  0.40261  0.57013  1.0000
  H   H120      1.0  0.58822  0.38915  0.55077  1.0000
  N   N12       1.0  0.55490  0.37520  0.34838  1.0000
