data_image0
_chemical_formula_structural       C8H12CNCOCH3NHCNCOCH3NHC3NC3NC5NC5NC20H18CHCHCHCHNC2HNHNC2HNH
_chemical_formula_sum              "C58 H46 N12 O2"
_cell_length_a       25.2408
_cell_length_b       25.2424
_cell_length_c       15.0149
_cell_angle_alpha    90
_cell_angle_beta     90
_cell_angle_gamma    90.0377

_space_group_name_H-M_alt    "P 1"
_space_group_IT_number       1

loop_
  _space_group_symop_operation_xyz
  'x, y, z'

loop_
  _atom_site_type_symbol
  _atom_site_label
  _atom_site_symmetry_multiplicity
  _atom_site_fract_x
  _atom_site_fract_y
  _atom_site_fract_z
  _atom_site_occupancy
  C   C1        1.0  0.72019  0.95521  0.26412  1.0000
  C   C2        1.0  0.77527  0.96360  0.26150  1.0000
  C   C3        1.0  0.95247  0.27865  0.26581  1.0000
  C   C4        1.0  0.95980  0.22343  0.26314  1.0000
  C   C5        1.0  0.21419  0.04284  0.25050  1.0000
  C   C6        1.0  0.26919  0.05107  0.24550  1.0000
  C   C7        1.0  0.03712  0.78435  0.24696  1.0000
  C   C8        1.0  0.04572  0.72943  0.24194  1.0000
  H   H1        1.0  0.05493  0.71303  0.18158  1.0000
  H   H2        1.0  0.04078  0.80675  0.19043  1.0000
  H   H3        1.0  0.19174  0.04728  0.19419  1.0000
  H   H4        1.0  0.28556  0.06094  0.18539  1.0000
  H   H5        1.0  0.95778  0.20421  0.20320  1.0000
  H   H6        1.0  0.94555  0.29848  0.20753  1.0000
  H   H7        1.0  0.79461  0.96150  0.20167  1.0000
  H   H8        1.0  0.70055  0.94757  0.20590  1.0000
  H   H9        1.0  0.92580  0.37825  0.29317  1.0000
  H   H10       1.0  0.62064  0.92820  0.29083  1.0000
  H   H11       1.0  0.06760  0.62813  0.25068  1.0000
  H   H12       1.0  0.37090  0.07095  0.25395  1.0000
  C   C9        1.0  0.99816  0.55622  0.32395  1.0000
  N   N1        1.0  0.01469  0.46995  0.26557  1.0000
  C   C10       1.0  0.01378  0.52321  0.25238  1.0000
  O   O1        1.0  0.03010  0.54331  0.17245  1.0000
  C   C11       1.0  0.98963  0.54224  0.10514  1.0000
  H   H13       1.0  0.00606  0.55931  0.04443  1.0000
  H   H14       1.0  0.95521  0.56580  0.12461  1.0000
  H   H15       1.0  0.97708  0.50169  0.09044  1.0000
  N   N2        1.0  0.99588  0.61195  0.31994  1.0000
  H   H16       1.0  0.97176  0.62274  0.26793  1.0000
  C   C12       1.0  0.44191  0.99996  0.32451  1.0000
  N   N3        1.0  0.52801  0.01640  0.26529  1.0000
  C   C13       1.0  0.47470  0.01561  0.25266  1.0000
  O   O2        1.0  0.45436  0.03225  0.17310  1.0000
  C   C14       1.0  0.45477  0.99188  0.10559  1.0000
  H   H17       1.0  0.43757  0.00854  0.04517  1.0000
  H   H18       1.0  0.43099  0.95761  0.12519  1.0000
  H   H19       1.0  0.49513  0.97905  0.09031  1.0000
  N   N4        1.0  0.38612  0.99840  0.32132  1.0000
  H   H20       1.0  0.37470  0.97480  0.26899  1.0000
  C   C15       1.0  0.91818  0.85224  0.33452  1.0000
  C   C16       1.0  0.87459  0.88519  0.33634  1.0000
  C   C17       1.0  0.89250  0.93760  0.33738  1.0000
  N   N5        1.0  0.94611  0.93442  0.33722  1.0000
  C   C18       1.0  0.96375  0.88372  0.33552  1.0000
  C   C19       1.0  0.01661  0.86418  0.33405  1.0000
  C   C20       1.0  0.06286  0.89621  0.33469  1.0000
  N   N6        1.0  0.06573  0.94963  0.33682  1.0000
  C   C21       1.0  0.11638  0.96693  0.33574  1.0000
  C   C22       1.0  0.14811  0.92164  0.33293  1.0000
  C   C23       1.0  0.11513  0.87805  0.33300  1.0000
  C   C24       1.0  0.13456  0.02016  0.33648  1.0000
  C   C25       1.0  0.10128  0.06562  0.33850  1.0000
  N   N7        1.0  0.04768  0.06876  0.33838  1.0000
  C   C26       1.0  0.03004  0.11946  0.34020  1.0000
  C   C27       1.0  0.07559  0.15096  0.34189  1.0000
  C   C28       1.0  0.11918  0.11801  0.34125  1.0000
  C   C29       1.0  0.97721  0.13904  0.33993  1.0000
  C   C30       1.0  0.93093  0.10707  0.33885  1.0000
  N   N8        1.0  0.92809  0.05363  0.33846  1.0000
  C   C31       1.0  0.87744  0.03633  0.33854  1.0000
  C   C32       1.0  0.84569  0.08165  0.33860  1.0000
  C   C33       1.0  0.87868  0.12526  0.33915  1.0000
  C   C34       1.0  0.85927  0.98310  0.33840  1.0000
  C   C35       1.0  0.80349  0.97483  0.34051  1.0000
  C   C36       1.0  0.77570  0.97783  0.42199  1.0000
  C   C37       1.0  0.72058  0.96989  0.42428  1.0000
  C   C38       1.0  0.69219  0.95806  0.34558  1.0000
  C   C39       1.0  0.96992  0.19492  0.34227  1.0000
  C   C40       1.0  0.97288  0.22254  0.42392  1.0000
  C   C41       1.0  0.96591  0.27779  0.42627  1.0000
  C   C42       1.0  0.95517  0.30647  0.34744  1.0000
  C   C43       1.0  0.19028  0.02852  0.33209  1.0000
  C   C44       1.0  0.30153  0.04458  0.32161  1.0000
  C   C45       1.0  0.27751  0.02978  0.40296  1.0000
  C   C46       1.0  0.22237  0.02226  0.40845  1.0000
  C   C47       1.0  0.02403  0.80834  0.32904  1.0000
  C   C48       1.0  0.01913  0.77637  0.40582  1.0000
  C   C49       1.0  0.02692  0.72128  0.40032  1.0000
  C   C50       1.0  0.04079  0.69723  0.31854  1.0000
  H   H21       1.0  0.02278  0.69881  0.45662  1.0000
  H   H22       1.0  0.00963  0.79292  0.46597  1.0000
  H   H23       1.0  0.91614  0.81181  0.33276  1.0000
  H   H24       1.0  0.83622  0.87224  0.33614  1.0000
  H   H25       1.0  0.96904  0.96475  0.33798  1.0000
  H   H26       1.0  0.02475  0.03847  0.33571  1.0000
  H   H27       1.0  0.12787  0.83964  0.33129  1.0000
  H   H28       1.0  0.18854  0.91987  0.33110  1.0000
  H   H29       1.0  0.20589  0.01169  0.46815  1.0000
  H   H30       1.0  0.30008  0.02444  0.45886  1.0000
  H   H31       1.0  0.15755  0.13096  0.34252  1.0000
  H   H32       1.0  0.07760  0.19139  0.34325  1.0000
  H   H33       1.0  0.80524  0.08338  0.33853  1.0000
  H   H34       1.0  0.86599  0.16370  0.33983  1.0000
  H   H35       1.0  0.98040  0.20268  0.48201  1.0000
  H   H36       1.0  0.96864  0.29699  0.48613  1.0000
  H   H37       1.0  0.70124  0.97271  0.48400  1.0000
  H   H38       1.0  0.79534  0.98613  0.48001  1.0000
  C   C51       1.0  0.94905  0.36496  0.35054  1.0000
  H   H39       1.0  0.92693  0.37621  0.41036  1.0000
  C   C52       1.0  0.63375  0.95118  0.34863  1.0000
  H   H40       1.0  0.62281  0.92855  0.40807  1.0000
  C   C53       1.0  0.04799  0.63894  0.31307  1.0000
  H   H41       1.0  0.07394  0.62630  0.36744  1.0000
  C   C54       1.0  0.35991  0.05095  0.31590  1.0000
  H   H42       1.0  0.37308  0.07622  0.37086  1.0000
  N   N9        1.0  0.98305  0.53289  0.40141  1.0000
  C   C55       1.0  0.98311  0.47966  0.41365  1.0000
  C   C56       1.0  0.99978  0.44669  0.34314  1.0000
  H   H43       1.0  0.97165  0.46418  0.47347  1.0000
  N   N10       1.0  0.00179  0.39102  0.34873  1.0000
  H   H44       1.0  0.02373  0.38071  0.40370  1.0000
  N   N11       1.0  0.46547  0.98449  0.40155  1.0000
  C   C57       1.0  0.51875  0.98425  0.41313  1.0000
  C   C58       1.0  0.55151  0.00118  0.34247  1.0000
  H   H45       1.0  0.53443  0.97266  0.47273  1.0000
  N   N12       1.0  0.60717  0.00363  0.34781  1.0000
  H   H46       1.0  0.61741  0.02544  0.40298  1.0000
