data_image0
_chemical_formula_structural       C4H2CNC3NC5NC2NC35H23C21H18C16H16C2NOCHC2NOCHC4NOCHC2NOCHC2NOCHC4NOCHC18H17C3NC3NC2NC5NC34H24C3NC3NC5NC5NC36H26C4NOCHC4NOCHC2NOCHC4NOCHC4NOCHC2NOCH
_chemical_formula_sum              "C252 H138 N24 O12"
_cell_length_a       58.7668
_cell_length_b       58.7668
_cell_length_c       14.9689
_cell_angle_alpha    89.774
_cell_angle_beta     90.226
_cell_angle_gamma    120

_space_group_name_H-M_alt    "P 1"
_space_group_IT_number       1

loop_
  _space_group_symop_operation_xyz
  'x, y, z'

loop_
  _atom_site_type_symbol
  _atom_site_label
  _atom_site_symmetry_multiplicity
  _atom_site_fract_x
  _atom_site_fract_y
  _atom_site_fract_z
  _atom_site_occupancy
  C   C1        1.0  0.02234  0.63280  0.33530  1.0000
  C   C2        1.0  0.01376  0.60594  0.33214  1.0000
  C   C3        1.0  0.01377  0.50787  0.33502  1.0000
  C   C4        1.0  0.02234  0.48959  0.33181  1.0000
  H   H1        1.0  0.01098  0.64145  0.33766  1.0000
  H   H2        1.0  0.01098  0.46958  0.32954  1.0000
  C   C5        1.0  0.04947  0.64637  0.33672  1.0000
  N   N1        1.0  0.03594  0.60425  0.33105  1.0000
  C   C6        1.0  0.05810  0.62812  0.33397  1.0000
  C   C7        1.0  0.08486  0.63452  0.33495  1.0000
  C   C8        1.0  0.09348  0.61583  0.33413  1.0000
  N   N2        1.0  0.07863  0.58933  0.33353  1.0000
  C   C9        1.0  0.09349  0.57769  0.33308  1.0000
  C   C10       1.0  0.11960  0.59808  0.33359  1.0000
  C   C11       1.0  0.11959  0.62155  0.33387  1.0000
  C   C12       1.0  0.08487  0.55039  0.33232  1.0000
  C   C13       1.0  0.05810  0.53002  0.33314  1.0000
  N   N3        1.0  0.03595  0.53174  0.33603  1.0000
  C   C14       1.0  0.04946  0.50315  0.33031  1.0000
  C   C15       1.0  0.98701  0.50149  0.33604  1.0000
  N   N4        1.0  0.99322  0.54663  0.33363  1.0000
  C   C16       1.0  0.97836  0.55826  0.33230  1.0000
  C   C17       1.0  0.95224  0.53787  0.33274  1.0000
  C   C18       1.0  0.95225  0.51440  0.33487  1.0000
  C   C19       1.0  0.98700  0.58556  0.33136  1.0000
  C   C20       1.0  0.96728  0.59291  0.33063  1.0000
  C   C21       1.0  0.95823  0.59765  0.24904  1.0000
  C   C22       1.0  0.93764  0.60334  0.24797  1.0000
  C   C23       1.0  0.92547  0.60445  0.32812  1.0000
  C   C24       1.0  0.90358  0.60880  0.32678  1.0000
  C   C25       1.0  0.86074  0.59894  0.26518  1.0000
  C   C26       1.0  0.88298  0.59585  0.26386  1.0000
  C   C27       1.0  0.96731  0.47441  0.33718  1.0000
  C   C28       1.0  0.95553  0.46111  0.25695  1.0000
  C   C29       1.0  0.93516  0.43473  0.25872  1.0000
  C   C30       1.0  0.92594  0.42088  0.34045  1.0000
  C   C31       1.0  0.90436  0.39448  0.34217  1.0000
  C   C32       1.0  0.90220  0.37561  0.27902  1.0000
  C   C33       1.0  0.88023  0.35007  0.27796  1.0000
  C   C34       1.0  0.85967  0.34242  0.34041  1.0000
  C   C35       1.0  0.10460  0.54304  0.32949  1.0000
  C   C36       1.0  0.14650  0.53176  0.32558  1.0000
  C   C37       1.0  0.13822  0.53897  0.24678  1.0000
  C   C38       1.0  0.11748  0.54442  0.24851  1.0000
  C   C39       1.0  0.16850  0.52770  0.32455  1.0000
  C   C40       1.0  0.19231  0.54623  0.28338  1.0000
  C   C41       1.0  0.21435  0.54282  0.28422  1.0000
  C   C42       1.0  0.21338  0.52064  0.32550  1.0000
  C   C43       1.0  0.10462  0.66159  0.33830  1.0000
  C   C44       1.0  0.11273  0.67698  0.25970  1.0000
  C   C45       1.0  0.13352  0.70317  0.26228  1.0000
  C   C46       1.0  0.14696  0.71454  0.34310  1.0000
  C   C47       1.0  0.16929  0.74040  0.34454  1.0000
  C   C48       1.0  0.21483  0.79190  0.34451  1.0000
  C   C49       1.0  0.19115  0.78712  0.30308  1.0000
  C   C50       1.0  0.16881  0.76180  0.30274  1.0000
  H   H3        1.0  0.18984  0.80214  0.27340  1.0000
  H   H4        1.0  0.15200  0.75920  0.27267  1.0000
  H   H5        1.0  0.13949  0.71350  0.20364  1.0000
  H   H6        1.0  0.10398  0.66903  0.19974  1.0000
  H   H7        1.0  0.06079  0.66637  0.34009  1.0000
  H   H8        1.0  0.03595  0.58794  0.32775  1.0000
  H   H9        1.0  0.03596  0.54806  0.33951  1.0000
  H   H10       1.0  0.13614  0.63967  0.33389  1.0000
  H   H11       1.0  0.13615  0.59650  0.33378  1.0000
  H   H12       1.0  0.11223  0.54996  0.19063  1.0000
  H   H13       1.0  0.14732  0.54042  0.18714  1.0000
  H   H14       1.0  0.06077  0.49445  0.32703  1.0000
  H   H15       1.0  0.93572  0.49627  0.33565  1.0000
  H   H16       1.0  0.96132  0.47071  0.19691  1.0000
  H   H17       1.0  0.92651  0.42602  0.19947  1.0000
  H   H18       1.0  0.87939  0.33707  0.23092  1.0000
  H   H19       1.0  0.91669  0.38029  0.23283  1.0000
  H   H20       1.0  0.88343  0.58311  0.21845  1.0000
  H   H21       1.0  0.84587  0.58840  0.22068  1.0000
  H   H22       1.0  0.93157  0.60664  0.18758  1.0000
  H   H23       1.0  0.96629  0.59658  0.18979  1.0000
  H   H24       1.0  0.19411  0.56288  0.25459  1.0000
  H   H25       1.0  0.23142  0.55719  0.25632  1.0000
  C   C51       1.0  0.52446  0.61234  0.33673  1.0000
  C   C52       1.0  0.50407  0.61805  0.33909  1.0000
  C   C53       1.0  0.48060  0.59457  0.34027  1.0000
  C   C54       1.0  0.50457  0.45734  0.25170  1.0000
  C   C55       1.0  0.49890  0.43107  0.25051  1.0000
  C   C56       1.0  0.50333  0.35855  0.26759  1.0000
  C   C57       1.0  0.50640  0.38387  0.26635  1.0000
  C   C58       1.0  0.64301  0.59680  0.26156  1.0000
  C   C59       1.0  0.66930  0.60251  0.26372  1.0000
  C   C60       1.0  0.72809  0.62688  0.30375  1.0000
  C   C61       1.0  0.75365  0.63046  0.30386  1.0000
  C   C62       1.0  0.75904  0.61193  0.34498  1.0000
  C   C63       1.0  0.56317  0.69596  0.25021  1.0000
  C   C64       1.0  0.55774  0.66978  0.25192  1.0000
  C   C65       1.0  0.55595  0.74276  0.28660  1.0000
  C   C66       1.0  0.55942  0.76823  0.28724  1.0000
  C   C67       1.0  0.42730  0.53811  0.25962  1.0000
  C   C68       1.0  0.40103  0.53243  0.26115  1.0000
  C   C69       1.0  0.30944  0.51747  0.34138  1.0000
  C   C70       1.0  0.31669  0.50418  0.27924  1.0000
  C   C71       1.0  0.34201  0.50718  0.28084  1.0000
  H   H26       1.0  0.30357  0.49218  0.23199  1.0000
  H   H27       1.0  0.34641  0.49714  0.23480  1.0000
  H   H28       1.0  0.39234  0.53245  0.20182  1.0000
  H   H29       1.0  0.43685  0.54180  0.19965  1.0000
  H   H30       1.0  0.46248  0.59296  0.34244  1.0000
  H   H31       1.0  0.55222  0.65912  0.19400  1.0000
  H   H32       1.0  0.56176  0.70374  0.19054  1.0000
  H   H33       1.0  0.60773  0.66292  0.33540  1.0000
  H   H34       1.0  0.63488  0.59758  0.20182  1.0000
  H   H35       1.0  0.67955  0.60709  0.20502  1.0000
  H   H36       1.0  0.76839  0.64695  0.27422  1.0000
  H   H37       1.0  0.72505  0.64084  0.27392  1.0000
  H   H38       1.0  0.51914  0.39717  0.22098  1.0000
  H   H39       1.0  0.51394  0.35435  0.22324  1.0000
  H   H40       1.0  0.49564  0.42186  0.19007  1.0000
  H   H41       1.0  0.50569  0.46663  0.19250  1.0000
  H   H42       1.0  0.53931  0.72798  0.25773  1.0000
  H   H43       1.0  0.54509  0.77101  0.25915  1.0000
  C   C72       1.0  0.64265  0.14774  0.25272  1.0000
  C   C73       1.0  0.66872  0.16870  0.25037  1.0000
  C   C74       1.0  0.74012  0.24556  0.28594  1.0000
  C   C75       1.0  0.71489  0.22321  0.28567  1.0000
  C   C76       1.0  0.50524  0.14282  0.26474  1.0000
  C   C77       1.0  0.49950  0.16338  0.26699  1.0000
  C   C78       1.0  0.47526  0.19781  0.30701  1.0000
  C   C79       1.0  0.47175  0.21983  0.30692  1.0000
  C   C80       1.0  0.40412  0.96851  0.25158  1.0000
  C   C81       1.0  0.43050  0.98888  0.25319  1.0000
  C   C82       1.0  0.35631  0.91421  0.26639  1.0000
  C   C83       1.0  0.33076  0.89229  0.26704  1.0000
  C   C84       1.0  0.56404  0.98588  0.26196  1.0000
  C   C85       1.0  0.56977  0.96532  0.26344  1.0000
  C   C86       1.0  0.59807  0.90921  0.28161  1.0000
  C   C87       1.0  0.59503  0.93150  0.28312  1.0000
  H   H44       1.0  0.61008  0.90820  0.23441  1.0000
  H   H45       1.0  0.60506  0.94603  0.23706  1.0000
  H   H46       1.0  0.56970  0.95670  0.20410  1.0000
  H   H47       1.0  0.56033  0.99186  0.20202  1.0000
  H   H48       1.0  0.43979  0.99706  0.19416  1.0000
  H   H49       1.0  0.39486  0.96271  0.19102  1.0000
  H   H50       1.0  0.50445  0.13405  0.20496  1.0000
  H   H51       1.0  0.49494  0.16919  0.20830  1.0000
  H   H52       1.0  0.45527  0.21817  0.27724  1.0000
  H   H53       1.0  0.46127  0.18087  0.27720  1.0000
  H   H54       1.0  0.69982  0.22464  0.25693  1.0000
  H   H55       1.0  0.74245  0.26248  0.25769  1.0000
  H   H56       1.0  0.67625  0.17779  0.19049  1.0000
  H   H57       1.0  0.63180  0.14236  0.19504  1.0000
  H   H58       1.0  0.36947  0.91449  0.22122  1.0000
  H   H59       1.0  0.32626  0.87746  0.22245  1.0000
  C   C88       1.0  0.25200  0.52228  0.25153  1.0000
  C   C89       1.0  0.27534  0.52145  0.25613  1.0000
  N   N5        1.0  0.28620  0.52770  0.17532  1.0000
  O   O1        1.0  0.24773  0.52838  0.16745  1.0000
  C   C90       1.0  0.26960  0.53155  0.12441  1.0000
  H   H60       1.0  0.27330  0.53699  0.05885  1.0000
  C   C91       1.0  0.58006  0.82648  0.25420  1.0000
  C   C92       1.0  0.58090  0.85065  0.25868  1.0000
  N   N6        1.0  0.57463  0.85539  0.17783  1.0000
  O   O2        1.0  0.57392  0.81624  0.17020  1.0000
  C   C93       1.0  0.57088  0.83507  0.12693  1.0000
  H   H61       1.0  0.56518  0.83332  0.06162  1.0000
  C   C94       1.0  0.23787  0.81725  0.34270  1.0000
  C   C95       1.0  0.28697  0.86689  0.33554  1.0000
  C   C96       1.0  0.27078  0.85617  0.25924  1.0000
  C   C97       1.0  0.24710  0.83228  0.26323  1.0000
  N   N7        1.0  0.23713  0.82733  0.18087  1.0000
  O   O3        1.0  0.27557  0.86659  0.17531  1.0000
  C   C98       1.0  0.25405  0.84776  0.13074  1.0000
  H   H62       1.0  0.25102  0.84920  0.06428  1.0000
  C   C99       1.0  0.82366  0.62168  0.25856  1.0000
  C   C100      1.0  0.79949  0.62089  0.26304  1.0000
  N   N8        1.0  0.79413  0.62565  0.18083  1.0000
  O   O4        1.0  0.83382  0.62740  0.17444  1.0000
  C   C101      1.0  0.81459  0.62958  0.13032  1.0000
  H   H63       1.0  0.81573  0.63394  0.06383  1.0000
  C   C102      1.0  0.48067  0.29874  0.26112  1.0000
  C   C103      1.0  0.48147  0.27536  0.26570  1.0000
  N   N9        1.0  0.47663  0.26534  0.18358  1.0000
  O   O5        1.0  0.47492  0.30331  0.17700  1.0000
  C   C104      1.0  0.47270  0.28195  0.13299  1.0000
  H   H64       1.0  0.46828  0.27882  0.06655  1.0000
  C   C105      1.0  0.83657  0.31727  0.33600  1.0000
  C   C106      1.0  0.78697  0.26813  0.32882  1.0000
  C   C107      1.0  0.79804  0.28407  0.25206  1.0000
  C   C108      1.0  0.82193  0.30773  0.25604  1.0000
  N   N10       1.0  0.82624  0.31855  0.17503  1.0000
  O   O6        1.0  0.78757  0.27958  0.16819  1.0000
  C   C109      1.0  0.80597  0.30157  0.12450  1.0000
  H   H65       1.0  0.80392  0.30527  0.05917  1.0000
  C   C110      1.0  0.97836  0.52014  0.33510  1.0000
  C   C111      1.0  0.93502  0.60004  0.40967  1.0000
  C   C112      1.0  0.95557  0.59430  0.41105  1.0000
  C   C113      1.0  0.90118  0.62529  0.39022  1.0000
  C   C114      1.0  0.87889  0.62833  0.39179  1.0000
  C   C115      1.0  0.85823  0.61508  0.32960  1.0000
  C   C116      1.0  0.93817  0.43438  0.42041  1.0000
  C   C117      1.0  0.95854  0.46075  0.41896  1.0000
  C   C118      1.0  0.86194  0.36105  0.40451  1.0000
  C   C119      1.0  0.88386  0.38660  0.40530  1.0000
  C   C120      1.0  0.11251  0.53556  0.40823  1.0000
  C   C121      1.0  0.13306  0.52982  0.40610  1.0000
  C   C122      1.0  0.18952  0.50206  0.36641  1.0000
  C   C123      1.0  0.16751  0.50558  0.36629  1.0000
  C   C124      1.0  0.11748  0.67299  0.41960  1.0000
  C   C125      1.0  0.13843  0.69907  0.42178  1.0000
  C   C126      1.0  0.19293  0.74519  0.38612  1.0000
  C   C127      1.0  0.21529  0.77042  0.38574  1.0000
  H   H66       1.0  0.23222  0.77274  0.41390  1.0000
  H   H67       1.0  0.19437  0.73013  0.41489  1.0000
  H   H68       1.0  0.14755  0.70663  0.48161  1.0000
  H   H69       1.0  0.11210  0.66218  0.47736  1.0000
  H   H70       1.0  0.10371  0.53476  0.46797  1.0000
  H   H71       1.0  0.13885  0.52525  0.46483  1.0000
  H   H72       1.0  0.93571  0.53947  0.33210  1.0000
  H   H73       1.0  0.96671  0.47001  0.47806  1.0000
  H   H74       1.0  0.93234  0.42509  0.48091  1.0000
  H   H75       1.0  0.88414  0.39975  0.45052  1.0000
  H   H76       1.0  0.84711  0.35654  0.44913  1.0000
  H   H77       1.0  0.96155  0.59058  0.47095  1.0000
  H   H78       1.0  0.92639  0.59994  0.46903  1.0000
  H   H79       1.0  0.87788  0.64033  0.43905  1.0000
  H   H80       1.0  0.91571  0.63531  0.43629  1.0000
  H   H81       1.0  0.15056  0.49159  0.39602  1.0000
  H   H82       1.0  0.18785  0.48557  0.39610  1.0000
  C   C128      1.0  0.45575  0.49963  0.33729  1.0000
  C   C129      1.0  0.46932  0.48606  0.33607  1.0000
  C   C130      1.0  0.49620  0.50435  0.33563  1.0000
  N   N11       1.0  0.49791  0.52822  0.33666  1.0000
  C   C131      1.0  0.47404  0.52651  0.33770  1.0000
  C   C132      1.0  0.46768  0.54689  0.33886  1.0000
  C   C133      1.0  0.48634  0.57420  0.33852  1.0000
  N   N12       1.0  0.51283  0.58585  0.33666  1.0000
  C   C134      1.0  0.55177  0.63102  0.33546  1.0000
  C   C135      1.0  0.57214  0.62463  0.33596  1.0000
  N   N13       1.0  0.57044  0.60075  0.33659  1.0000
  C   C136      1.0  0.59432  0.60245  0.33725  1.0000
  C   C137      1.0  0.61259  0.62933  0.33738  1.0000
  C   C138      1.0  0.59903  0.64290  0.33586  1.0000
  C   C139      1.0  0.60071  0.58207  0.33775  1.0000
  C   C140      1.0  0.58203  0.55476  0.33648  1.0000
  N   N14       1.0  0.55553  0.54313  0.33658  1.0000
  C   C141      1.0  0.54388  0.51664  0.33474  1.0000
  C   C142      1.0  0.56425  0.51090  0.33300  1.0000
  C   C143      1.0  0.58774  0.53437  0.33409  1.0000
  C   C144      1.0  0.51658  0.49798  0.33446  1.0000
  C   C145      1.0  0.50924  0.47091  0.33338  1.0000
  C   C146      1.0  0.49773  0.41759  0.33061  1.0000
  C   C147      1.0  0.50211  0.43134  0.41222  1.0000
  C   C148      1.0  0.50780  0.45761  0.41374  1.0000
  C   C149      1.0  0.49341  0.39136  0.32919  1.0000
  C   C150      1.0  0.47691  0.37232  0.39257  1.0000
  C   C151      1.0  0.47392  0.34701  0.39417  1.0000
  C   C152      1.0  0.48722  0.33976  0.33202  1.0000
  C   C153      1.0  0.62779  0.58938  0.34034  1.0000
  C   C154      1.0  0.68097  0.60064  0.34430  1.0000
  C   C155      1.0  0.66564  0.59345  0.42310  1.0000
  C   C156      1.0  0.63946  0.58802  0.42134  1.0000
  C   C157      1.0  0.70705  0.60474  0.34545  1.0000
  C   C158      1.0  0.73792  0.58973  0.38616  1.0000
  C   C159      1.0  0.71245  0.58625  0.38677  1.0000
  C   C160      1.0  0.55909  0.65810  0.33290  1.0000
  C   C161      1.0  0.56650  0.67331  0.41171  1.0000
  C   C162      1.0  0.57223  0.69961  0.40958  1.0000
  C   C163      1.0  0.57035  0.71128  0.32902  1.0000
  C   C164      1.0  0.57443  0.73735  0.32794  1.0000
  C   C165      1.0  0.58161  0.78934  0.32847  1.0000
  C   C166      1.0  0.60014  0.78395  0.36961  1.0000
  C   C167      1.0  0.59657  0.75839  0.36966  1.0000
  C   C168      1.0  0.44060  0.53955  0.33997  1.0000
  C   C169      1.0  0.42704  0.53488  0.42166  1.0000
  C   C170      1.0  0.38728  0.52804  0.34278  1.0000
  C   C171      1.0  0.40077  0.52920  0.42287  1.0000
  C   C172      1.0  0.36105  0.52369  0.34422  1.0000
  C   C173      1.0  0.35355  0.53668  0.40706  1.0000
  C   C174      1.0  0.32822  0.53360  0.40579  1.0000
  H   H83       1.0  0.32401  0.54418  0.45018  1.0000
  H   H84       1.0  0.36684  0.54942  0.45243  1.0000
  H   H85       1.0  0.39156  0.52594  0.48331  1.0000
  H   H86       1.0  0.43633  0.53600  0.48085  1.0000
  H   H87       1.0  0.43573  0.49095  0.33773  1.0000
  H   H88       1.0  0.46064  0.46604  0.33564  1.0000
  H   H89       1.0  0.51425  0.54456  0.33665  1.0000
  H   H90       1.0  0.55411  0.58441  0.33657  1.0000
  H   H91       1.0  0.50566  0.63617  0.34077  1.0000
  H   H92       1.0  0.56725  0.66517  0.47145  1.0000
  H   H93       1.0  0.57676  0.70983  0.46832  1.0000
  H   H94       1.0  0.63262  0.63803  0.33793  1.0000
  H   H95       1.0  0.56265  0.49277  0.33087  1.0000
  H   H96       1.0  0.60586  0.53596  0.33251  1.0000
  H   H97       1.0  0.62879  0.58251  0.47924  1.0000
  H   H98       1.0  0.67341  0.59204  0.48278  1.0000
  H   H99       1.0  0.69767  0.56960  0.41560  1.0000
  H   H100      1.0  0.74070  0.57539  0.41423  1.0000
  H   H101      1.0  0.51150  0.46716  0.47370  1.0000
  H   H102      1.0  0.50216  0.42266  0.47156  1.0000
  H   H103      1.0  0.46193  0.33389  0.44142  1.0000
  H   H104      1.0  0.46686  0.37671  0.43860  1.0000
  H   H105      1.0  0.61053  0.75536  0.39951  1.0000
  H   H106      1.0  0.61664  0.79869  0.39925  1.0000
  C   C175      1.0  0.60250  0.05265  0.33757  1.0000
  C   C176      1.0  0.61607  0.07978  0.33598  1.0000
  C   C177      1.0  0.59782  0.08841  0.33871  1.0000
  N   N15       1.0  0.57395  0.06625  0.34168  1.0000
  C   C178      1.0  0.57564  0.04407  0.34068  1.0000
  C   C179      1.0  0.55527  0.01731  0.34151  1.0000
  C   C180      1.0  0.52796  0.00866  0.34043  1.0000
  N   N16       1.0  0.51633  0.02352  0.33901  1.0000
  C   C181      1.0  0.48984  0.00866  0.33740  1.0000
  C   C182      1.0  0.48411  0.98255  0.33761  1.0000
  C   C183      1.0  0.50758  0.98255  0.33996  1.0000
  C   C184      1.0  0.47119  0.01731  0.33637  1.0000
  C   C185      1.0  0.47757  0.04407  0.33747  1.0000
  N   N17       1.0  0.50144  0.06625  0.33659  1.0000
  C   C186      1.0  0.49972  0.08840  0.33956  1.0000
  C   C187      1.0  0.47284  0.07976  0.34233  1.0000
  C   C188      1.0  0.45929  0.05264  0.34076  1.0000
  C   C189      1.0  0.52008  0.11517  0.34048  1.0000
  C   C190      1.0  0.54738  0.12379  0.33966  1.0000
  N   N18       1.0  0.55903  0.10894  0.33917  1.0000
  C   C191      1.0  0.58553  0.12379  0.33848  1.0000
  C   C192      1.0  0.59124  0.14990  0.33875  1.0000
  C   C193      1.0  0.56777  0.14990  0.33912  1.0000
  C   C194      1.0  0.60421  0.11517  0.33763  1.0000
  C   C195      1.0  0.63128  0.13493  0.33412  1.0000
  C   C196      1.0  0.68424  0.17726  0.32895  1.0000
  C   C197      1.0  0.67290  0.16386  0.40987  1.0000
  C   C198      1.0  0.64672  0.14307  0.41262  1.0000
  C   C199      1.0  0.71010  0.19957  0.32733  1.0000
  C   C200      1.0  0.73151  0.19909  0.36905  1.0000
  C   C201      1.0  0.75684  0.22143  0.36857  1.0000
  C   C202      1.0  0.76161  0.24510  0.32709  1.0000
  C   C203      1.0  0.51273  0.13490  0.34342  1.0000
  C   C204      1.0  0.50145  0.17679  0.34756  1.0000
  C   C205      1.0  0.50866  0.16849  0.42631  1.0000
  C   C206      1.0  0.51411  0.14776  0.42446  1.0000
  C   C207      1.0  0.49738  0.19879  0.34871  1.0000
  C   C208      1.0  0.49033  0.24367  0.34789  1.0000
  C   C209      1.0  0.51249  0.24463  0.38920  1.0000
  C   C210      1.0  0.51590  0.22258  0.38997  1.0000
  C   C211      1.0  0.44411  0.99761  0.33506  1.0000
  C   C212      1.0  0.43077  0.98580  0.41520  1.0000
  C   C213      1.0  0.40439  0.96545  0.41327  1.0000
  C   C214      1.0  0.39058  0.95626  0.33146  1.0000
  C   C215      1.0  0.36417  0.93469  0.32957  1.0000
  C   C216      1.0  0.31211  0.89000  0.33114  1.0000
  C   C217      1.0  0.31974  0.91055  0.39362  1.0000
  C   C218      1.0  0.34528  0.93253  0.39265  1.0000
  C   C219      1.0  0.56262  0.99759  0.34234  1.0000
  C   C220      1.0  0.56733  0.98855  0.42398  1.0000
  C   C221      1.0  0.57416  0.95579  0.34504  1.0000
  C   C222      1.0  0.57302  0.96796  0.42515  1.0000
  C   C223      1.0  0.57851  0.93390  0.34648  1.0000
  C   C224      1.0  0.56555  0.91330  0.40939  1.0000
  C   C225      1.0  0.56863  0.89106  0.40813  1.0000
  C   C226      1.0  0.58479  0.88855  0.34379  1.0000
  H   H107      1.0  0.55809  0.87619  0.45261  1.0000
  H   H108      1.0  0.55280  0.91376  0.45474  1.0000
  H   H109      1.0  0.57631  0.96189  0.48558  1.0000
  H   H110      1.0  0.56624  0.99660  0.48320  1.0000
  H   H111      1.0  0.61115  0.04129  0.33526  1.0000
  H   H112      1.0  0.63607  0.09110  0.33267  1.0000
  H   H113      1.0  0.55764  0.06625  0.34488  1.0000
  H   H114      1.0  0.51776  0.06626  0.33310  1.0000
  H   H115      1.0  0.50918  0.96601  0.34061  1.0000
  H   H116      1.0  0.46597  0.96602  0.33680  1.0000
  H   H117      1.0  0.44034  0.99157  0.47531  1.0000
  H   H118      1.0  0.39565  0.95677  0.47246  1.0000
  H   H119      1.0  0.43928  0.04128  0.34293  1.0000
  H   H120      1.0  0.46415  0.09107  0.34570  1.0000
  H   H121      1.0  0.60937  0.16645  0.33868  1.0000
  H   H122      1.0  0.56620  0.16645  0.33894  1.0000
  H   H123      1.0  0.51965  0.14248  0.48230  1.0000
  H   H124      1.0  0.51011  0.17757  0.48598  1.0000
  H   H125      1.0  0.53256  0.22438  0.41868  1.0000
  H   H126      1.0  0.52688  0.26170  0.41706  1.0000
  H   H127      1.0  0.63879  0.13435  0.47265  1.0000
  H   H128      1.0  0.68327  0.16984  0.46843  1.0000
  H   H129      1.0  0.77186  0.22012  0.39823  1.0000
  H   H130      1.0  0.72891  0.18230  0.39918  1.0000
  H   H131      1.0  0.34994  0.94699  0.43888  1.0000
  H   H132      1.0  0.30673  0.90969  0.44064  1.0000
  C   C227      1.0  0.28456  0.51602  0.33634  1.0000
  C   C228      1.0  0.26842  0.51094  0.41229  1.0000
  C   C229      1.0  0.24505  0.51175  0.40771  1.0000
  C   C230      1.0  0.23609  0.51777  0.32790  1.0000
  N   N19       1.0  0.23502  0.50691  0.48982  1.0000
  O   O7        1.0  0.27297  0.50516  0.49640  1.0000
  C   C231      1.0  0.25163  0.50297  0.54042  1.0000
  H   H133      1.0  0.24847  0.49851  0.60683  1.0000
  C   C232      1.0  0.58629  0.86515  0.33886  1.0000
  C   C233      1.0  0.59137  0.85396  0.41487  1.0000
  C   C234      1.0  0.59057  0.82979  0.41041  1.0000
  C   C235      1.0  0.58453  0.81494  0.33067  1.0000
  N   N20       1.0  0.59531  0.82443  0.49262  1.0000
  O   O8        1.0  0.59708  0.86412  0.49899  1.0000
  C   C236      1.0  0.59924  0.84488  0.54314  1.0000
  H   H134      1.0  0.60361  0.84603  0.60962  1.0000
  C   C237      1.0  0.25381  0.82833  0.41945  1.0000
  C   C238      1.0  0.27746  0.85223  0.41547  1.0000
  N   N21       1.0  0.28827  0.85656  0.49648  1.0000
  O   O9        1.0  0.24931  0.81787  0.50335  1.0000
  C   C239      1.0  0.27135  0.83622  0.54693  1.0000
  H   H135      1.0  0.27494  0.83431  0.61251  1.0000
  C   C240      1.0  0.78464  0.61485  0.34277  1.0000
  C   C241      1.0  0.79616  0.61034  0.41921  1.0000
  C   C242      1.0  0.82033  0.61117  0.41472  1.0000
  C   C243      1.0  0.83484  0.61658  0.33455  1.0000
  N   N22       1.0  0.82507  0.60489  0.49555  1.0000
  O   O10       1.0  0.78593  0.60422  0.50323  1.0000
  C   C244      1.0  0.80472  0.60107  0.54640  1.0000
  H   H136      1.0  0.80305  0.59554  0.61187  1.0000
  C   C245      1.0  0.48748  0.26639  0.34551  1.0000
  C   C246      1.0  0.49200  0.28230  0.42189  1.0000
  C   C247      1.0  0.49117  0.30565  0.41730  1.0000
  C   C248      1.0  0.48579  0.31489  0.33705  1.0000
  N   N23       1.0  0.49742  0.31650  0.49813  1.0000
  O   O11       1.0  0.49809  0.27803  0.50596  1.0000
  C   C249      1.0  0.50116  0.29984  0.54912  1.0000
  H   H137      1.0  0.50681  0.30365  0.61446  1.0000
  C   C250      1.0  0.82587  0.30107  0.41230  1.0000
  C   C251      1.0  0.80199  0.27738  0.40831  1.0000
  N   N24       1.0  0.79703  0.26742  0.49069  1.0000
  O   O12       1.0  0.83627  0.30589  0.49625  1.0000
  C   C252      1.0  0.81746  0.28436  0.54082  1.0000
  H   H138      1.0  0.81888  0.28135  0.60731  1.0000
