data_image0
_chemical_formula_structural       C2H2C3NC2NC4NC4NC35H23C21H18C16H16C2H2O2HC2H2CO2HC3H2OCO2HC2H2CO2HC2H2OCO2HC3H2O2HC18H17C3NC3NC2NC5NC34H24C3NC3NC5NC5NC36H26C4NC2NOHC5NC2NOHC3NC2NHC4NC2NOHC4NC2NHC3NC2NOHC
_chemical_formula_sum              "C258 H150 N24 O18"
_cell_length_a       58.6996
_cell_length_b       58.6996
_cell_length_c       14.9732
_cell_angle_alpha    89.7736
_cell_angle_beta     90.2264
_cell_angle_gamma    120

_space_group_name_H-M_alt    "P 1"
_space_group_IT_number       1

loop_
  _space_group_symop_operation_xyz
  'x, y, z'

loop_
  _atom_site_type_symbol
  _atom_site_label
  _atom_site_symmetry_multiplicity
  _atom_site_fract_x
  _atom_site_fract_y
  _atom_site_fract_z
  _atom_site_occupancy
  C   C1        1.0  0.01135  0.50482  0.32506  1.0000
  C   C2        1.0  0.01118  0.60287  0.32332  1.0000
  H   H1        1.0  0.00853  0.46659  0.31308  1.0000
  H   H2        1.0  0.00843  0.63839  0.31216  1.0000
  C   C3        1.0  0.01992  0.48660  0.31706  1.0000
  C   C4        1.0  0.04708  0.50021  0.31520  1.0000
  C   C5        1.0  0.05571  0.52704  0.32295  1.0000
  N   N1        1.0  0.03353  0.52871  0.32797  1.0000
  C   C6        1.0  0.98460  0.49841  0.33003  1.0000
  C   C7        1.0  0.97594  0.51708  0.33230  1.0000
  N   N2        1.0  0.99073  0.54357  0.32732  1.0000
  C   C8        1.0  0.97584  0.55519  0.33016  1.0000
  C   C9        1.0  0.94979  0.53480  0.33736  1.0000
  C   C10       1.0  0.94985  0.51133  0.33851  1.0000
  C   C11       1.0  0.98440  0.58249  0.32616  1.0000
  N   N3        1.0  0.03337  0.60118  0.32758  1.0000
  C   C12       1.0  0.05554  0.62508  0.32522  1.0000
  C   C13       1.0  0.04694  0.64334  0.31828  1.0000
  C   C14       1.0  0.01979  0.62973  0.31651  1.0000
  C   C15       1.0  0.08230  0.63149  0.33018  1.0000
  N   N4        1.0  0.07616  0.58633  0.32736  1.0000
  C   C16       1.0  0.09105  0.57470  0.33010  1.0000
  C   C17       1.0  0.11711  0.59510  0.33730  1.0000
  C   C18       1.0  0.11705  0.61857  0.33838  1.0000
  C   C19       1.0  0.08251  0.54741  0.32573  1.0000
  C   C20       1.0  0.10235  0.54015  0.32361  1.0000
  C   C21       1.0  0.11724  0.54401  0.24536  1.0000
  C   C22       1.0  0.13844  0.53920  0.24558  1.0000
  C   C23       1.0  0.14510  0.53008  0.32353  1.0000
  C   C24       1.0  0.16771  0.52701  0.32557  1.0000
  C   C25       1.0  0.21509  0.54537  0.30223  1.0000
  C   C26       1.0  0.19240  0.54766  0.29656  1.0000
  C   C27       1.0  0.10200  0.65859  0.33346  1.0000
  C   C28       1.0  0.11222  0.67324  0.25408  1.0000
  C   C29       1.0  0.13286  0.69953  0.25757  1.0000
  C   C30       1.0  0.14402  0.71171  0.34024  1.0000
  C   C31       1.0  0.16611  0.73773  0.34354  1.0000
  C   C32       1.0  0.16662  0.75860  0.29421  1.0000
  C   C33       1.0  0.18871  0.78411  0.29699  1.0000
  C   C34       1.0  0.21106  0.78959  0.34897  1.0000
  C   C35       1.0  0.96459  0.58980  0.32475  1.0000
  C   C36       1.0  0.92260  0.60103  0.32475  1.0000
  C   C37       1.0  0.92929  0.59234  0.24621  1.0000
  C   C38       1.0  0.95008  0.58693  0.24599  1.0000
  C   C39       1.0  0.90052  0.60497  0.32639  1.0000
  C   C40       1.0  0.87583  0.58548  0.29270  1.0000
  C   C41       1.0  0.85362  0.58857  0.29797  1.0000
  C   C42       1.0  0.85541  0.61131  0.33684  1.0000
  C   C43       1.0  0.96487  0.47132  0.33289  1.0000
  C   C44       1.0  0.95334  0.45735  0.25339  1.0000
  C   C45       1.0  0.93238  0.43122  0.25684  1.0000
  C   C46       1.0  0.92219  0.41848  0.33967  1.0000
  C   C47       1.0  0.89970  0.39268  0.34322  1.0000
  C   C48       1.0  0.85373  0.34147  0.34791  1.0000
  C   C49       1.0  0.87499  0.34696  0.29058  1.0000
  C   C50       1.0  0.89757  0.37214  0.28824  1.0000
  H   H3        1.0  0.87424  0.33257  0.25017  1.0000
  H   H4        1.0  0.91262  0.37526  0.24641  1.0000
  H   H5        1.0  0.92387  0.42198  0.19806  1.0000
  H   H6        1.0  0.95969  0.46634  0.19257  1.0000
  H   H7        1.0  0.05841  0.49157  0.30991  1.0000
  H   H8        1.0  0.03354  0.54490  0.33744  1.0000
  H   H9        1.0  0.03338  0.58496  0.33612  1.0000
  H   H10       1.0  0.93336  0.49319  0.34311  1.0000
  H   H11       1.0  0.93327  0.53639  0.34148  1.0000
  H   H12       1.0  0.95417  0.58030  0.18846  1.0000
  H   H13       1.0  0.91896  0.58976  0.18829  1.0000
  H   H14       1.0  0.05830  0.66337  0.31524  1.0000
  H   H15       1.0  0.13355  0.63670  0.34279  1.0000
  H   H16       1.0  0.10509  0.66470  0.19320  1.0000
  H   H17       1.0  0.14037  0.70935  0.19874  1.0000
  H   H18       1.0  0.18826  0.79876  0.26108  1.0000
  H   H19       1.0  0.15072  0.75547  0.25657  1.0000
  H   H20       1.0  0.19428  0.56498  0.27368  1.0000
  H   H21       1.0  0.23273  0.56097  0.28276  1.0000
  H   H22       1.0  0.14914  0.54266  0.18826  1.0000
  H   H23       1.0  0.11324  0.55111  0.18843  1.0000
  H   H24       1.0  0.87357  0.56837  0.26659  1.0000
  H   H25       1.0  0.83593  0.57374  0.27511  1.0000
  C   C51       1.0  0.54492  0.52012  0.33290  1.0000
  C   C52       1.0  0.56532  0.51445  0.33950  1.0000
  C   C53       1.0  0.58880  0.53797  0.34045  1.0000
  C   C54       1.0  0.55612  0.67284  0.24817  1.0000
  C   C55       1.0  0.56088  0.69883  0.24832  1.0000
  C   C56       1.0  0.55452  0.76909  0.30477  1.0000
  C   C57       1.0  0.55228  0.74414  0.29922  1.0000
  C   C58       1.0  0.42747  0.54016  0.25615  1.0000
  C   C59       1.0  0.40125  0.53471  0.25922  1.0000
  C   C60       1.0  0.34211  0.50959  0.29007  1.0000
  C   C61       1.0  0.31673  0.50649  0.29198  1.0000
  C   C62       1.0  0.31090  0.52210  0.34879  1.0000
  C   C63       1.0  0.50782  0.43659  0.24920  1.0000
  C   C64       1.0  0.51323  0.46280  0.24893  1.0000
  C   C65       1.0  0.51472  0.38995  0.29635  1.0000
  C   C66       1.0  0.51163  0.36463  0.30167  1.0000
  C   C67       1.0  0.64328  0.59725  0.25623  1.0000
  C   C68       1.0  0.66948  0.60261  0.25951  1.0000
  C   C69       1.0  0.75911  0.61296  0.34959  1.0000
  C   C70       1.0  0.75389  0.63007  0.29785  1.0000
  C   C71       1.0  0.72857  0.62714  0.29553  1.0000
  H   H26       1.0  0.76859  0.64497  0.26169  1.0000
  H   H27       1.0  0.72563  0.64005  0.25798  1.0000
  H   H28       1.0  0.67915  0.60474  0.20061  1.0000
  H   H29       1.0  0.63464  0.59583  0.19542  1.0000
  H   H30       1.0  0.60694  0.53960  0.34444  1.0000
  H   H31       1.0  0.51992  0.47365  0.19147  1.0000
  H   H32       1.0  0.51047  0.42897  0.19136  1.0000
  H   H33       1.0  0.46173  0.46959  0.31444  1.0000
  H   H34       1.0  0.43641  0.54270  0.19544  1.0000
  H   H35       1.0  0.39188  0.53366  0.20028  1.0000
  H   H36       1.0  0.30245  0.49261  0.25164  1.0000
  H   H37       1.0  0.34549  0.49776  0.24864  1.0000
  H   H38       1.0  0.53498  0.72872  0.27634  1.0000
  H   H39       1.0  0.53887  0.77112  0.28536  1.0000
  H   H40       1.0  0.55742  0.70617  0.19096  1.0000
  H   H41       1.0  0.54901  0.66184  0.19130  1.0000
  H   H42       1.0  0.53188  0.40487  0.27060  1.0000
  H   H43       1.0  0.52651  0.36185  0.27920  1.0000
  C   C72       1.0  0.42644  0.98324  0.24993  1.0000
  C   C73       1.0  0.40034  0.96224  0.24971  1.0000
  C   C74       1.0  0.32922  0.88576  0.30021  1.0000
  C   C75       1.0  0.35433  0.90828  0.29535  1.0000
  C   C76       1.0  0.55936  0.98661  0.25824  1.0000
  C   C77       1.0  0.56484  0.96585  0.26143  1.0000
  C   C78       1.0  0.58999  0.93182  0.29248  1.0000
  C   C79       1.0  0.59312  0.90955  0.29447  1.0000
  C   C80       1.0  0.66240  0.17117  0.24923  1.0000
  C   C81       1.0  0.63629  0.15017  0.24957  1.0000
  C   C82       1.0  0.70862  0.22477  0.29891  1.0000
  C   C83       1.0  0.73382  0.24717  0.30385  1.0000
  C   C84       1.0  0.50246  0.14547  0.25881  1.0000
  C   C85       1.0  0.49711  0.16630  0.26209  1.0000
  C   C86       1.0  0.46987  0.22335  0.29968  1.0000
  C   C87       1.0  0.47272  0.20091  0.29743  1.0000
  H   H44       1.0  0.45513  0.22335  0.26296  1.0000
  H   H45       1.0  0.45989  0.18522  0.25935  1.0000
  H   H46       1.0  0.49516  0.17408  0.20317  1.0000
  H   H47       1.0  0.50399  0.13845  0.19798  1.0000
  H   H48       1.0  0.62516  0.14629  0.19286  1.0000
  H   H49       1.0  0.66967  0.18186  0.19174  1.0000
  H   H50       1.0  0.55682  0.99310  0.19749  1.0000
  H   H51       1.0  0.56586  0.95761  0.20253  1.0000
  H   H52       1.0  0.60700  0.90924  0.25413  1.0000
  H   H53       1.0  0.60179  0.94709  0.25097  1.0000
  H   H54       1.0  0.36941  0.90641  0.26927  1.0000
  H   H55       1.0  0.32673  0.86827  0.27705  1.0000
  H   H56       1.0  0.39278  0.95204  0.19158  1.0000
  H   H57       1.0  0.43729  0.98758  0.19256  1.0000
  H   H58       1.0  0.69334  0.22699  0.27645  1.0000
  H   H59       1.0  0.73616  0.26496  0.28439  1.0000
  C   C88       1.0  0.25098  0.52253  0.26455  1.0000
  C   C89       1.0  0.27475  0.52227  0.26689  1.0000
  H   H60       1.0  0.28465  0.52484  0.20821  1.0000
  H   H61       1.0  0.24412  0.52467  0.20389  1.0000
  O   O1        1.0  0.30369  0.52064  0.00386  1.0000
  O   O2        1.0  0.26804  0.48991  0.04786  1.0000
  H   H62       1.0  0.25094  0.47847  0.04597  1.0000
  C   C90       1.0  0.57721  0.82787  0.26711  1.0000
  C   C91       1.0  0.57740  0.85186  0.26948  1.0000
  H   H63       1.0  0.57480  0.85929  0.21080  1.0000
  H   H64       1.0  0.57507  0.81900  0.20646  1.0000
  C   C92       1.0  0.59022  0.86951  0.00177  1.0000
  O   O3        1.0  0.57918  0.88244  0.00683  1.0000
  O   O4        1.0  0.60970  0.87714  0.05083  1.0000
  H   H65       1.0  0.62112  0.87146  0.04891  1.0000
  C   C93       1.0  0.23398  0.81516  0.34987  1.0000
  C   C94       1.0  0.26977  0.85121  0.26627  1.0000
  C   C95       1.0  0.24578  0.82740  0.26821  1.0000
  H   H66       1.0  0.23748  0.81852  0.20888  1.0000
  H   H67       1.0  0.27787  0.85906  0.20541  1.0000
  O   O5        1.0  0.28344  0.86321  0.00096  1.0000
  C   C96       1.0  0.23393  0.81552  0.00185  1.0000
  O   O6        1.0  0.21036  0.80752  0.00772  1.0000
  O   O7        1.0  0.24135  0.80195  0.04217  1.0000
  H   H68       1.0  0.25748  0.80428  0.04009  1.0000
  C   C97       1.0  0.81982  0.61444  0.26516  1.0000
  C   C98       1.0  0.79629  0.61515  0.26783  1.0000
  H   H69       1.0  0.78731  0.61475  0.20875  1.0000
  H   H70       1.0  0.82737  0.61397  0.20407  1.0000
  C   C99       1.0  0.78537  0.61536  0.00177  1.0000
  O   O8        1.0  0.77791  0.63134  0.00831  1.0000
  O   O9        1.0  0.77149  0.59440  0.04171  1.0000
  H   H71       1.0  0.77343  0.58037  0.03921  1.0000
  C   C100      1.0  0.48598  0.30517  0.26795  1.0000
  C   C101      1.0  0.48518  0.28088  0.27042  1.0000
  H   H72       1.0  0.48592  0.27261  0.21133  1.0000
  H   H73       1.0  0.48675  0.31348  0.20693  1.0000
  O   O10       1.0  0.48616  0.31861  0.00240  1.0000
  C   C102      1.0  0.48298  0.26853  0.00431  1.0000
  O   O11       1.0  0.46564  0.24553  0.01077  1.0000
  O   O12       1.0  0.50390  0.27384  0.04134  1.0000
  H   H74       1.0  0.51860  0.28929  0.03829  1.0000
  C   C103      1.0  0.83026  0.31633  0.34809  1.0000
  C   C104      1.0  0.79266  0.28224  0.26487  1.0000
  C   C105      1.0  0.81693  0.30575  0.26673  1.0000
  H   H75       1.0  0.82434  0.31561  0.20787  1.0000
  H   H76       1.0  0.78355  0.27553  0.20441  1.0000
  O   O13       1.0  0.84859  0.33464  0.00342  1.0000
  O   O14       1.0  0.84257  0.29860  0.04789  1.0000
  H   H77       1.0  0.83654  0.28143  0.04618  1.0000
  C   C106      1.0  0.09095  0.61282  0.33241  1.0000
  C   C107      1.0  0.12962  0.52551  0.40097  1.0000
  C   C108      1.0  0.10866  0.53069  0.40130  1.0000
  C   C109      1.0  0.16637  0.50380  0.35906  1.0000
  C   C110      1.0  0.18901  0.50132  0.36344  1.0000
  C   C111      1.0  0.21377  0.52227  0.33656  1.0000
  C   C112      1.0  0.13341  0.69694  0.41950  1.0000
  C   C113      1.0  0.11262  0.67075  0.41630  1.0000
  C   C114      1.0  0.21069  0.76860  0.39698  1.0000
  C   C115      1.0  0.18855  0.74319  0.39491  1.0000
  C   C116      1.0  0.95826  0.59874  0.40313  1.0000
  C   C117      1.0  0.93765  0.60445  0.40288  1.0000
  C   C118      1.0  0.88015  0.63114  0.36855  1.0000
  C   C119      1.0  0.90232  0.62788  0.36420  1.0000
  C   C120      1.0  0.95524  0.45860  0.41576  1.0000
  C   C121      1.0  0.93416  0.43256  0.41896  1.0000
  C   C122      1.0  0.87836  0.38717  0.40020  1.0000
  C   C123      1.0  0.85574  0.36208  0.40213  1.0000
  H   H78       1.0  0.84041  0.35921  0.44211  1.0000
  H   H79       1.0  0.87869  0.40166  0.43900  1.0000
  H   H80       1.0  0.92747  0.42401  0.48017  1.0000
  H   H81       1.0  0.96308  0.46843  0.47431  1.0000
  H   H82       1.0  0.96824  0.60062  0.46137  1.0000
  H   H83       1.0  0.93302  0.61008  0.46152  1.0000
  H   H84       1.0  0.13365  0.59353  0.34133  1.0000
  H   H85       1.0  0.10568  0.66045  0.47470  1.0000
  H   H86       1.0  0.14085  0.70510  0.48060  1.0000
  H   H87       1.0  0.18932  0.72849  0.42936  1.0000
  H   H88       1.0  0.22682  0.77148  0.43273  1.0000
  H   H89       1.0  0.09845  0.52816  0.45928  1.0000
  H   H90       1.0  0.13427  0.51956  0.45923  1.0000
  H   H91       1.0  0.18737  0.48424  0.38774  1.0000
  H   H92       1.0  0.14880  0.48836  0.37991  1.0000
  H   H93       1.0  0.91988  0.64252  0.38852  1.0000
  H   H94       1.0  0.88210  0.64792  0.39647  1.0000
  C   C124      1.0  0.61354  0.63285  0.32043  1.0000
  C   C125      1.0  0.59992  0.64639  0.31859  1.0000
  C   C126      1.0  0.57308  0.62816  0.32582  1.0000
  N   N5        1.0  0.57141  0.60430  0.33040  1.0000
  C   C127      1.0  0.59530  0.60601  0.32773  1.0000
  C   C128      1.0  0.60172  0.58567  0.33265  1.0000
  C   C129      1.0  0.58305  0.55833  0.33490  1.0000
  N   N6        1.0  0.55655  0.54664  0.33027  1.0000
  C   C130      1.0  0.51762  0.50139  0.32910  1.0000
  C   C131      1.0  0.49724  0.50780  0.32655  1.0000
  N   N7        1.0  0.49892  0.53165  0.33125  1.0000
  C   C132      1.0  0.47503  0.52994  0.32850  1.0000
  C   C133      1.0  0.45678  0.50313  0.32108  1.0000
  C   C134      1.0  0.47038  0.48958  0.31937  1.0000
  C   C135      1.0  0.46863  0.55029  0.33327  1.0000
  C   C136      1.0  0.48730  0.57761  0.33550  1.0000
  N   N8        1.0  0.51378  0.58931  0.33031  1.0000
  C   C137      1.0  0.52541  0.61582  0.33311  1.0000
  C   C138      1.0  0.50503  0.62147  0.34062  1.0000
  C   C139      1.0  0.48156  0.59794  0.34185  1.0000
  C   C140      1.0  0.55270  0.63457  0.32868  1.0000
  C   C141      1.0  0.55995  0.66167  0.32653  1.0000
  C   C142      1.0  0.56997  0.71448  0.32626  1.0000
  C   C143      1.0  0.57450  0.70342  0.40381  1.0000
  C   C144      1.0  0.56938  0.67729  0.40420  1.0000
  C   C145      1.0  0.57297  0.74011  0.32823  1.0000
  C   C146      1.0  0.59616  0.76196  0.36167  1.0000
  C   C147      1.0  0.59857  0.78704  0.36600  1.0000
  C   C148      1.0  0.57758  0.79084  0.33911  1.0000
  C   C149      1.0  0.44154  0.54292  0.33586  1.0000
  C   C150      1.0  0.38850  0.53214  0.34186  1.0000
  C   C151      1.0  0.40271  0.53461  0.42139  1.0000
  C   C152      1.0  0.42885  0.53986  0.41856  1.0000
  C   C153      1.0  0.36252  0.52836  0.34496  1.0000
  C   C154      1.0  0.33137  0.54105  0.40294  1.0000
  C   C155      1.0  0.35666  0.54402  0.40143  1.0000
  C   C156      1.0  0.51030  0.47427  0.32763  1.0000
  C   C157      1.0  0.50127  0.45881  0.40593  1.0000
  C   C158      1.0  0.49557  0.43250  0.40573  1.0000
  C   C159      1.0  0.49906  0.42105  0.32768  1.0000
  C   C160      1.0  0.49514  0.39503  0.32941  1.0000
  C   C161      1.0  0.48879  0.34356  0.33993  1.0000
  C   C162      1.0  0.46887  0.34837  0.37097  1.0000
  C   C163      1.0  0.47214  0.37381  0.36666  1.0000
  C   C164      1.0  0.62882  0.59304  0.33572  1.0000
  C   C165      1.0  0.64111  0.59455  0.41846  1.0000
  C   C166      1.0  0.68177  0.60355  0.34209  1.0000
  C   C167      1.0  0.66720  0.59964  0.42146  1.0000
  C   C168      1.0  0.70763  0.60705  0.34513  1.0000
  C   C169      1.0  0.71283  0.58984  0.39632  1.0000
  C   C170      1.0  0.73805  0.59262  0.39795  1.0000
  H   H95       1.0  0.74072  0.57920  0.43351  1.0000
  H   H96       1.0  0.69806  0.57454  0.43095  1.0000
  H   H97       1.0  0.67543  0.60029  0.48247  1.0000
  H   H98       1.0  0.63093  0.59127  0.47694  1.0000
  H   H99       1.0  0.63356  0.64151  0.31703  1.0000
  H   H100      1.0  0.60857  0.66640  0.31387  1.0000
  H   H101      1.0  0.55520  0.58807  0.33926  1.0000
  H   H102      1.0  0.51516  0.54788  0.33979  1.0000
  H   H103      1.0  0.56375  0.49632  0.34324  1.0000
  H   H104      1.0  0.49936  0.46680  0.46416  1.0000
  H   H105      1.0  0.48989  0.42210  0.46433  1.0000
  H   H106      1.0  0.43676  0.49449  0.31744  1.0000
  H   H107      1.0  0.50660  0.63957  0.34491  1.0000
  H   H108      1.0  0.46342  0.59629  0.34667  1.0000
  H   H109      1.0  0.43875  0.54204  0.47726  1.0000
  H   H110      1.0  0.39416  0.53273  0.48246  1.0000
  H   H111      1.0  0.37102  0.55837  0.44024  1.0000
  H   H112      1.0  0.32822  0.55337  0.44264  1.0000
  H   H113      1.0  0.57187  0.66951  0.46226  1.0000
  H   H114      1.0  0.58044  0.71392  0.46204  1.0000
  H   H115      1.0  0.61563  0.80246  0.39031  1.0000
  H   H116      1.0  0.61162  0.75983  0.38255  1.0000
  H   H117      1.0  0.45744  0.37666  0.39052  1.0000
  H   H118      1.0  0.45203  0.33345  0.39843  1.0000
  C   C171      1.0  0.46666  0.07989  0.32381  1.0000
  C   C172      1.0  0.45311  0.05273  0.32199  1.0000
  C   C173      1.0  0.47136  0.04411  0.32853  1.0000
  N   N9        1.0  0.49523  0.06629  0.33288  1.0000
  C   C174      1.0  0.49351  0.08847  0.33051  1.0000
  C   C175      1.0  0.51387  0.11522  0.33523  1.0000
  C   C176      1.0  0.54120  0.12387  0.33730  1.0000
  N   N10       1.0  0.55289  0.10908  0.33230  1.0000
  C   C177      1.0  0.57941  0.12397  0.33484  1.0000
  C   C178      1.0  0.58507  0.15002  0.34187  1.0000
  C   C179      1.0  0.56155  0.14997  0.34307  1.0000
  C   C180      1.0  0.59815  0.11542  0.33045  1.0000
  C   C181      1.0  0.59172  0.08863  0.32780  1.0000
  N   N11       1.0  0.56787  0.06645  0.33311  1.0000
  C   C182      1.0  0.56956  0.04426  0.33015  1.0000
  C   C183      1.0  0.59636  0.05283  0.32192  1.0000
  C   C184      1.0  0.60991  0.07999  0.31989  1.0000
  C   C185      1.0  0.54923  0.01751  0.33523  1.0000
  C   C186      1.0  0.52190  0.00885  0.33750  1.0000
  N   N12       1.0  0.51021  0.02365  0.33256  1.0000
  C   C187      1.0  0.48370  0.00876  0.33517  1.0000
  C   C188      1.0  0.47804  0.98270  0.34219  1.0000
  C   C189      1.0  0.50156  0.98275  0.34349  1.0000
  C   C190      1.0  0.46496  0.01733  0.33107  1.0000
  C   C191      1.0  0.43786  0.99751  0.32906  1.0000
  C   C192      1.0  0.38485  0.95510  0.32814  1.0000
  C   C193      1.0  0.39623  0.96993  0.40662  1.0000
  C   C194      1.0  0.42245  0.99076  0.40731  1.0000
  C   C195      1.0  0.35901  0.93272  0.32940  1.0000
  C   C196      1.0  0.33759  0.93396  0.36722  1.0000
  C   C197      1.0  0.31236  0.91149  0.37113  1.0000
  C   C198      1.0  0.30796  0.88700  0.33900  1.0000
  C   C199      1.0  0.55660  0.99779  0.33789  1.0000
  C   C200      1.0  0.56739  0.95552  0.34412  1.0000
  C   C201      1.0  0.56491  0.96711  0.42358  1.0000
  C   C202      1.0  0.55964  0.98800  0.42065  1.0000
  C   C203      1.0  0.57121  0.93333  0.34734  1.0000
  C   C204      1.0  0.57754  0.88801  0.35136  1.0000
  C   C205      1.0  0.55860  0.88941  0.40556  1.0000
  C   C206      1.0  0.55560  0.91172  0.40397  1.0000
  C   C207      1.0  0.62526  0.13525  0.32800  1.0000
  C   C208      1.0  0.64111  0.14134  0.40531  1.0000
  C   C209      1.0  0.66735  0.16213  0.40445  1.0000
  C   C210      1.0  0.67830  0.17760  0.32677  1.0000
  C   C211      1.0  0.70416  0.19991  0.32809  1.0000
  C   C212      1.0  0.75540  0.24539  0.33766  1.0000
  C   C213      1.0  0.75117  0.22046  0.36466  1.0000
  C   C214      1.0  0.72584  0.19811  0.36099  1.0000
  C   C215      1.0  0.50650  0.13494  0.33832  1.0000
  C   C216      1.0  0.50484  0.14545  0.42109  1.0000
  C   C217      1.0  0.49604  0.17740  0.34470  1.0000
  C   C218      1.0  0.49977  0.16645  0.42409  1.0000
  C   C219      1.0  0.49260  0.19979  0.34776  1.0000
  C   C220      1.0  0.50968  0.22198  0.39969  1.0000
  C   C221      1.0  0.50699  0.24446  0.40126  1.0000
  C   C222      1.0  0.48687  0.24545  0.35210  1.0000
  H   H119      1.0  0.52031  0.26039  0.43744  1.0000
  H   H120      1.0  0.52484  0.22232  0.43486  1.0000
  H   H121      1.0  0.49901  0.17384  0.48514  1.0000
  H   H122      1.0  0.50799  0.13834  0.47959  1.0000
  H   H123      1.0  0.45800  0.09126  0.32077  1.0000
  H   H124      1.0  0.43310  0.04139  0.31765  1.0000
  H   H125      1.0  0.51148  0.06629  0.34073  1.0000
  H   H126      1.0  0.55169  0.06645  0.34277  1.0000
  H   H127      1.0  0.55992  0.16646  0.34743  1.0000
  H   H128      1.0  0.60319  0.16656  0.34578  1.0000
  H   H129      1.0  0.63345  0.13110  0.46340  1.0000
  H   H130      1.0  0.67803  0.16658  0.46239  1.0000
  H   H131      1.0  0.62989  0.09133  0.31427  1.0000
  H   H132      1.0  0.60498  0.04145  0.31779  1.0000
  H   H133      1.0  0.45992  0.96616  0.34609  1.0000
  H   H134      1.0  0.50321  0.96625  0.34794  1.0000
  H   H135      1.0  0.55747  0.99562  0.47929  1.0000
  H   H136      1.0  0.56678  0.96033  0.48470  1.0000
  H   H137      1.0  0.54121  0.91163  0.44268  1.0000
  H   H138      1.0  0.54628  0.87386  0.44524  1.0000
  H   H139      1.0  0.43041  0.00054  0.46583  1.0000
  H   H140      1.0  0.38588  0.96499  0.46517  1.0000
  H   H141      1.0  0.29729  0.91303  0.39899  1.0000
  H   H142      1.0  0.34016  0.95134  0.39184  1.0000
  H   H143      1.0  0.72341  0.18041  0.38192  1.0000
  H   H144      1.0  0.76645  0.21849  0.38862  1.0000
  C   C223      1.0  0.28553  0.51990  0.34852  1.0000
  C   C224      1.0  0.27134  0.51723  0.42812  1.0000
  C   C225      1.0  0.24730  0.51774  0.42706  1.0000
  C   C226      1.0  0.23703  0.52048  0.34377  1.0000
  N   N13       1.0  0.23572  0.51639  0.50788  1.0000
  C   C227      1.0  0.24545  0.51351  0.58717  1.0000
  C   C228      1.0  0.26872  0.51208  0.58791  1.0000
  N   N14       1.0  0.28052  0.51422  0.50820  1.0000
  O   O15       1.0  0.23288  0.51256  0.66405  1.0000
  H   H145      1.0  0.21992  0.51777  0.51067  1.0000
  C   C229      1.0  0.27992  0.50927  0.66600  1.0000
  C   C230      1.0  0.57977  0.86485  0.35110  1.0000
  C   C231      1.0  0.58248  0.85319  0.43070  1.0000
  C   C232      1.0  0.58202  0.82867  0.42962  1.0000
  C   C233      1.0  0.57930  0.81584  0.34633  1.0000
  N   N15       1.0  0.58340  0.81829  0.51044  1.0000
  C   C234      1.0  0.58627  0.83073  0.58973  1.0000
  C   C235      1.0  0.58767  0.85542  0.59046  1.0000
  N   N16       1.0  0.58548  0.86522  0.51078  1.0000
  O   O16       1.0  0.58723  0.81896  0.66660  1.0000
  H   H146      1.0  0.58205  0.80111  0.51321  1.0000
  C   C236      1.0  0.24666  0.82814  0.43020  1.0000
  C   C237      1.0  0.27114  0.85226  0.42960  1.0000
  C   C238      1.0  0.28287  0.86384  0.34608  1.0000
  N   N17       1.0  0.28255  0.86261  0.51072  1.0000
  C   C239      1.0  0.27122  0.85149  0.59027  1.0000
  C   C240      1.0  0.24661  0.82816  0.59059  1.0000
  N   N18       1.0  0.23572  0.81756  0.51054  1.0000
  H   H147      1.0  0.29965  0.87852  0.51343  1.0000
  C   C241      1.0  0.78445  0.61506  0.34982  1.0000
  C   C242      1.0  0.79754  0.61510  0.42976  1.0000
  C   C243      1.0  0.82138  0.61420  0.42844  1.0000
  C   C244      1.0  0.83254  0.61371  0.34459  1.0000
  N   N19       1.0  0.83185  0.61294  0.50924  1.0000
  C   C245      1.0  0.82112  0.61344  0.58912  1.0000
  C   C246      1.0  0.79808  0.61525  0.59015  1.0000
  N   N20       1.0  0.78736  0.61576  0.51042  1.0000
  O   O17       1.0  0.83270  0.61223  0.66612  1.0000
  H   H148      1.0  0.84755  0.61136  0.51146  1.0000
  C   C247      1.0  0.48484  0.26873  0.35236  1.0000
  C   C248      1.0  0.48446  0.28142  0.43237  1.0000
  C   C249      1.0  0.48544  0.30620  0.43122  1.0000
  C   C250      1.0  0.48634  0.31824  0.34747  1.0000
  N   N21       1.0  0.48637  0.31756  0.51215  1.0000
  C   C251      1.0  0.48544  0.30593  0.59192  1.0000
  C   C252      1.0  0.48350  0.28103  0.59268  1.0000
  N   N22       1.0  0.48337  0.27016  0.51291  1.0000
  H   H149      1.0  0.48803  0.33487  0.51455  1.0000
  C   C253      1.0  0.81864  0.30220  0.42793  1.0000
  C   C254      1.0  0.79384  0.27844  0.42737  1.0000
  C   C255      1.0  0.78067  0.26838  0.34434  1.0000
  N   N23       1.0  0.78355  0.26693  0.50841  1.0000
  C   C256      1.0  0.79630  0.27645  0.58745  1.0000
  C   C257      1.0  0.82125  0.29942  0.58768  1.0000
  N   N24       1.0  0.83098  0.31119  0.50778  1.0000
  O   O18       1.0  0.78460  0.26399  0.66457  1.0000
  H   H150      1.0  0.76621  0.25134  0.51154  1.0000
  C   C258      1.0  0.83544  0.31047  0.66539  1.0000
