data_image0
_chemical_formula_structural       C2HC2HN2C2NCNC2H3CH3CHC2NCNC2H3CH3CHC4OC4OH4N2C2HC6H3CHC2HC6H3CHC2HC2HN2C2NCNC2H3CH3CHC2NCNC2H3CH3CHC4OC4OH4N2C2HC6H3CHC2HC6H3CHC2HC2HN2C2NCNC2H3CH3CHC2NCNC2H3CH3CHC4OC4OH4N2C2HC6H3CHC2HC6H3CHC2HC2HN2C2NCNC2H3CH3CHC2NCNC2H3CH3CHC4OC4OH4N2C2HC6H3CHC2HC6H3CH
_chemical_formula_sum              "C176 H120 N32 O8"
_cell_length_a       39.034
_cell_length_b       39.034
_cell_length_c       15.0764
_cell_angle_alpha    90
_cell_angle_beta     90
_cell_angle_gamma    90

_space_group_name_H-M_alt    "P 1"
_space_group_IT_number       1

loop_
  _space_group_symop_operation_xyz
  'x, y, z'

loop_
  _atom_site_type_symbol
  _atom_site_label
  _atom_site_symmetry_multiplicity
  _atom_site_fract_x
  _atom_site_fract_y
  _atom_site_fract_z
  _atom_site_occupancy
  C   C1        1.0  0.49300  0.45113  0.32926  1.0000
  C   C2        1.0  0.46875  0.42505  0.34413  1.0000
  H   H1        1.0  0.01554  0.44423  0.30024  1.0000
  C   C3        1.0  0.02476  0.07240  0.28939  1.0000
  C   C4        1.0  0.00062  0.04665  0.30948  1.0000
  H   H2        1.0  0.47537  0.05286  0.30434  1.0000
  N   N1        1.0  0.01609  0.10516  0.27146  1.0000
  N   N2        1.0  0.47371  0.39196  0.32215  1.0000
  C   C5        1.0  0.49490  0.33801  0.26976  1.0000
  C   C6        1.0  0.51975  0.31747  0.22521  1.0000
  N   N3        1.0  0.51467  0.28310  0.22082  1.0000
  C   C7        1.0  0.48715  0.26642  0.25449  1.0000
  N   N4        1.0  0.51086  0.21203  0.21517  1.0000
  C   C8        1.0  0.51260  0.17735  0.21579  1.0000
  C   C9        1.0  0.55170  0.32902  0.18112  1.0000
  H   H3        1.0  0.55494  0.35669  0.17925  1.0000
  H   H4        1.0  0.55184  0.32001  0.11257  1.0000
  H   H5        1.0  0.07372  0.31806  0.21540  1.0000
  C   C10       1.0  0.54279  0.16255  0.17023  1.0000
  H   H6        1.0  0.55701  0.18198  0.13327  1.0000
  H   H7        1.0  0.53466  0.14289  0.12320  1.0000
  H   H8        1.0  0.06020  0.15145  0.21877  1.0000
  C   C11       1.0  0.49882  0.37358  0.28343  1.0000
  H   H9        1.0  0.52033  0.38613  0.26349  1.0000
  C   C12       1.0  0.16012  0.49738  0.32370  1.0000
  C   C13       1.0  0.18091  0.46733  0.32381  1.0000
  N   N5        1.0  0.21477  0.47046  0.34258  1.0000
  C   C14       1.0  0.23086  0.50041  0.36051  1.0000
  N   N6        1.0  0.28430  0.47154  0.38079  1.0000
  C   C15       1.0  0.31850  0.46942  0.39516  1.0000
  C   C16       1.0  0.17013  0.43180  0.30283  1.0000
  H   H10       1.0  0.14444  0.42992  0.27532  1.0000
  H   H11       1.0  0.17133  0.41624  0.36281  1.0000
  H   H12       1.0  0.18755  0.92085  0.25367  1.0000
  C   C17       1.0  0.33237  0.43413  0.39184  1.0000
  H   H13       1.0  0.31213  0.41497  0.38474  1.0000
  H   H14       1.0  0.34618  0.42847  0.45297  1.0000
  H   H15       1.0  0.34944  0.93147  0.33496  1.0000
  C   C18       1.0  0.12416  0.49612  0.31437  1.0000
  H   H16       1.0  0.11184  0.47314  0.31490  1.0000
  C   C19       1.0  0.48560  0.48623  0.34549  1.0000
  C   C20       1.0  0.43622  0.43346  0.37781  1.0000
  C   C21       1.0  0.42716  0.46805  0.38995  1.0000
  C   C22       1.0  0.45191  0.49383  0.37582  1.0000
  O   O1        1.0  0.41235  0.40827  0.38887  1.0000
  C   C23       1.0  0.01035  0.01229  0.32722  1.0000
  C   C24       1.0  0.04605  0.00517  0.32482  1.0000
  C   C25       1.0  0.07080  0.03055  0.30626  1.0000
  C   C26       1.0  0.05994  0.06430  0.28902  1.0000
  O   O2        1.0  0.08361  0.08896  0.27008  1.0000
  H   H17       1.0  0.41457  0.40056  0.45069  1.0000
  H   H18       1.0  0.08994  0.09942  0.32714  1.0000
  H   H19       1.0  0.44486  0.01846  0.38868  1.0000
  H   H20       1.0  0.05469  0.48160  0.34323  1.0000
  N   N7        1.0  0.10497  0.02476  0.30708  1.0000
  N   N8        1.0  0.39360  0.47443  0.40397  1.0000
  C   C27       1.0  0.96105  0.28546  0.29685  1.0000
  C   C28       1.0  0.96529  0.32115  0.30331  1.0000
  H   H21       1.0  0.94668  0.33469  0.33588  1.0000
  C   C29       1.0  0.98508  0.23048  0.25136  1.0000
  C   C30       1.0  0.98583  0.15845  0.25780  1.0000
  C   C31       1.0  0.95733  0.17706  0.29073  1.0000
  C   C32       1.0  0.95694  0.21316  0.29012  1.0000
  C   C33       1.0  0.93041  0.23235  0.32991  1.0000
  C   C34       1.0  0.93249  0.26829  0.33342  1.0000
  H   H22       1.0  0.91003  0.22031  0.35912  1.0000
  H   H23       1.0  0.91351  0.28170  0.36489  1.0000
  H   H24       1.0  0.93766  0.16444  0.32179  1.0000
  C   C35       1.0  0.98643  0.12281  0.27296  1.0000
  H   H25       1.0  0.96530  0.11108  0.29926  1.0000
  C   C36       1.0  0.21194  0.03129  0.35828  1.0000
  C   C37       1.0  0.17664  0.02929  0.33916  1.0000
  H   H26       1.0  0.16274  0.05153  0.33998  1.0000
  C   C38       1.0  0.26615  0.00101  0.37941  1.0000
  C   C39       1.0  0.33758  0.00027  0.40874  1.0000
  C   C40       1.0  0.31888  0.03148  0.41067  1.0000
  C   C41       1.0  0.28319  0.03237  0.39571  1.0000
  C   C42       1.0  0.26416  0.06315  0.39433  1.0000
  C   C43       1.0  0.22879  0.06260  0.37597  1.0000
  H   H27       1.0  0.27593  0.08614  0.40590  1.0000
  H   H28       1.0  0.21553  0.08521  0.37490  1.0000
  H   H29       1.0  0.33149  0.05422  0.42009  1.0000
  C   C44       1.0  0.37369  0.00227  0.41476  1.0000
  H   H30       1.0  0.38534  0.02574  0.41702  1.0000
  C   C45       1.0  0.49300  0.95113  0.32926  1.0000
  C   C46       1.0  0.46875  0.92505  0.34413  1.0000
  H   H31       1.0  0.01554  0.94423  0.30024  1.0000
  C   C47       1.0  0.02476  0.57239  0.28939  1.0000
  C   C48       1.0  0.00062  0.54665  0.30948  1.0000
  H   H32       1.0  0.47537  0.55286  0.30434  1.0000
  N   N9        1.0  0.01609  0.60516  0.27146  1.0000
  N   N10       1.0  0.47371  0.89196  0.32215  1.0000
  C   C49       1.0  0.49490  0.83801  0.26976  1.0000
  C   C50       1.0  0.51975  0.81747  0.22521  1.0000
  N   N11       1.0  0.51467  0.78310  0.22082  1.0000
  C   C51       1.0  0.48715  0.76642  0.25449  1.0000
  N   N12       1.0  0.51086  0.71203  0.21517  1.0000
  C   C52       1.0  0.51260  0.67735  0.21579  1.0000
  C   C53       1.0  0.55170  0.82902  0.18112  1.0000
  H   H33       1.0  0.55494  0.85669  0.17925  1.0000
  H   H34       1.0  0.55184  0.82001  0.11257  1.0000
  H   H35       1.0  0.07372  0.81806  0.21540  1.0000
  C   C54       1.0  0.54279  0.66255  0.17023  1.0000
  H   H36       1.0  0.55701  0.68198  0.13327  1.0000
  H   H37       1.0  0.53466  0.64289  0.12320  1.0000
  H   H38       1.0  0.06020  0.65145  0.21877  1.0000
  C   C55       1.0  0.49882  0.87358  0.28343  1.0000
  H   H39       1.0  0.52033  0.88613  0.26349  1.0000
  C   C56       1.0  0.16012  0.99738  0.32370  1.0000
  C   C57       1.0  0.18091  0.96733  0.32381  1.0000
  N   N13       1.0  0.21477  0.97047  0.34258  1.0000
  C   C58       1.0  0.23086  0.00041  0.36051  1.0000
  N   N14       1.0  0.28430  0.97154  0.38079  1.0000
  C   C59       1.0  0.31850  0.96942  0.39516  1.0000
  C   C60       1.0  0.17013  0.93179  0.30283  1.0000
  H   H40       1.0  0.14444  0.92992  0.27532  1.0000
  H   H41       1.0  0.17133  0.91624  0.36281  1.0000
  H   H42       1.0  0.18755  0.42085  0.25367  1.0000
  C   C61       1.0  0.33237  0.93412  0.39184  1.0000
  H   H43       1.0  0.31213  0.91497  0.38474  1.0000
  H   H44       1.0  0.34618  0.92847  0.45297  1.0000
  H   H45       1.0  0.34944  0.43147  0.33496  1.0000
  C   C62       1.0  0.12416  0.99612  0.31437  1.0000
  H   H46       1.0  0.11184  0.97315  0.31490  1.0000
  C   C63       1.0  0.48560  0.98622  0.34549  1.0000
  C   C64       1.0  0.43622  0.93346  0.37781  1.0000
  C   C65       1.0  0.42716  0.96805  0.38995  1.0000
  C   C66       1.0  0.45191  0.99383  0.37582  1.0000
  O   O3        1.0  0.41235  0.90827  0.38887  1.0000
  C   C67       1.0  0.01035  0.51229  0.32722  1.0000
  C   C68       1.0  0.04605  0.50517  0.32482  1.0000
  C   C69       1.0  0.07080  0.53055  0.30626  1.0000
  C   C70       1.0  0.05994  0.56430  0.28902  1.0000
  O   O4        1.0  0.08361  0.58896  0.27008  1.0000
  H   H47       1.0  0.41457  0.90056  0.45069  1.0000
  H   H48       1.0  0.08994  0.59941  0.32714  1.0000
  H   H49       1.0  0.44486  0.51846  0.38868  1.0000
  H   H50       1.0  0.05469  0.98160  0.34323  1.0000
  N   N15       1.0  0.10497  0.52476  0.30708  1.0000
  N   N16       1.0  0.39360  0.97444  0.40397  1.0000
  C   C71       1.0  0.96105  0.78546  0.29685  1.0000
  C   C72       1.0  0.96529  0.82115  0.30331  1.0000
  H   H51       1.0  0.94668  0.83469  0.33588  1.0000
  C   C73       1.0  0.98508  0.73048  0.25136  1.0000
  C   C74       1.0  0.98583  0.65844  0.25780  1.0000
  C   C75       1.0  0.95733  0.67706  0.29073  1.0000
  C   C76       1.0  0.95694  0.71316  0.29012  1.0000
  C   C77       1.0  0.93041  0.73235  0.32991  1.0000
  C   C78       1.0  0.93249  0.76829  0.33342  1.0000
  H   H52       1.0  0.91003  0.72031  0.35912  1.0000
  H   H53       1.0  0.91351  0.78170  0.36489  1.0000
  H   H54       1.0  0.93766  0.66444  0.32179  1.0000
  C   C79       1.0  0.98643  0.62281  0.27296  1.0000
  H   H55       1.0  0.96530  0.61108  0.29926  1.0000
  C   C80       1.0  0.21194  0.53129  0.35828  1.0000
  C   C81       1.0  0.17664  0.52929  0.33916  1.0000
  H   H56       1.0  0.16274  0.55153  0.33998  1.0000
  C   C82       1.0  0.26615  0.50101  0.37941  1.0000
  C   C83       1.0  0.33758  0.50027  0.40874  1.0000
  C   C84       1.0  0.31888  0.53148  0.41067  1.0000
  C   C85       1.0  0.28319  0.53237  0.39571  1.0000
  C   C86       1.0  0.26416  0.56315  0.39433  1.0000
  C   C87       1.0  0.22879  0.56260  0.37597  1.0000
  H   H57       1.0  0.27593  0.58615  0.40590  1.0000
  H   H58       1.0  0.21553  0.58521  0.37490  1.0000
  H   H59       1.0  0.33149  0.55422  0.42009  1.0000
  C   C88       1.0  0.37369  0.50227  0.41476  1.0000
  H   H60       1.0  0.38534  0.52573  0.41702  1.0000
  C   C89       1.0  0.99300  0.45113  0.32926  1.0000
  C   C90       1.0  0.96874  0.42505  0.34413  1.0000
  H   H61       1.0  0.51554  0.44423  0.30024  1.0000
  C   C91       1.0  0.52476  0.07240  0.28939  1.0000
  C   C92       1.0  0.50062  0.04665  0.30948  1.0000
  H   H62       1.0  0.97537  0.05286  0.30434  1.0000
  N   N17       1.0  0.51609  0.10516  0.27146  1.0000
  N   N18       1.0  0.97371  0.39196  0.32215  1.0000
  C   C93       1.0  0.99490  0.33801  0.26976  1.0000
  C   C94       1.0  0.01975  0.31747  0.22521  1.0000
  N   N19       1.0  0.01467  0.28310  0.22082  1.0000
  C   C95       1.0  0.98715  0.26642  0.25449  1.0000
  N   N20       1.0  0.01086  0.21203  0.21517  1.0000
  C   C96       1.0  0.01260  0.17735  0.21579  1.0000
  C   C97       1.0  0.05170  0.32902  0.18112  1.0000
  H   H63       1.0  0.05494  0.35669  0.17925  1.0000
  H   H64       1.0  0.05184  0.32001  0.11257  1.0000
  H   H65       1.0  0.57372  0.31806  0.21540  1.0000
  C   C98       1.0  0.04279  0.16255  0.17023  1.0000
  H   H66       1.0  0.05701  0.18198  0.13327  1.0000
  H   H67       1.0  0.03466  0.14289  0.12320  1.0000
  H   H68       1.0  0.56020  0.15145  0.21877  1.0000
  C   C99       1.0  0.99882  0.37358  0.28343  1.0000
  H   H69       1.0  0.02033  0.38613  0.26349  1.0000
  C   C100      1.0  0.66012  0.49738  0.32370  1.0000
  C   C101      1.0  0.68091  0.46733  0.32381  1.0000
  N   N21       1.0  0.71477  0.47046  0.34258  1.0000
  C   C102      1.0  0.73086  0.50041  0.36051  1.0000
  N   N22       1.0  0.78430  0.47154  0.38079  1.0000
  C   C103      1.0  0.81850  0.46942  0.39516  1.0000
  C   C104      1.0  0.67013  0.43180  0.30283  1.0000
  H   H70       1.0  0.64444  0.42992  0.27532  1.0000
  H   H71       1.0  0.67132  0.41624  0.36281  1.0000
  H   H72       1.0  0.68755  0.92085  0.25367  1.0000
  C   C105      1.0  0.83237  0.43413  0.39184  1.0000
  H   H73       1.0  0.81213  0.41497  0.38474  1.0000
  H   H74       1.0  0.84618  0.42847  0.45297  1.0000
  H   H75       1.0  0.84945  0.93147  0.33496  1.0000
  C   C106      1.0  0.62416  0.49612  0.31437  1.0000
  H   H76       1.0  0.61184  0.47314  0.31490  1.0000
  C   C107      1.0  0.98560  0.48623  0.34549  1.0000
  C   C108      1.0  0.93622  0.43346  0.37781  1.0000
  C   C109      1.0  0.92716  0.46805  0.38995  1.0000
  C   C110      1.0  0.95191  0.49383  0.37582  1.0000
  O   O5        1.0  0.91235  0.40827  0.38887  1.0000
  C   C111      1.0  0.51035  0.01229  0.32722  1.0000
  C   C112      1.0  0.54605  0.00517  0.32482  1.0000
  C   C113      1.0  0.57080  0.03055  0.30626  1.0000
  C   C114      1.0  0.55994  0.06430  0.28902  1.0000
  O   O6        1.0  0.58361  0.08896  0.27008  1.0000
  H   H77       1.0  0.91458  0.40056  0.45069  1.0000
  H   H78       1.0  0.58994  0.09942  0.32714  1.0000
  H   H79       1.0  0.94486  0.01846  0.38868  1.0000
  H   H80       1.0  0.55469  0.48160  0.34323  1.0000
  N   N23       1.0  0.60496  0.02476  0.30708  1.0000
  N   N24       1.0  0.89360  0.47443  0.40397  1.0000
  C   C115      1.0  0.46105  0.28546  0.29685  1.0000
  C   C116      1.0  0.46529  0.32115  0.30331  1.0000
  H   H81       1.0  0.44668  0.33469  0.33588  1.0000
  C   C117      1.0  0.48509  0.23048  0.25136  1.0000
  C   C118      1.0  0.48583  0.15845  0.25780  1.0000
  C   C119      1.0  0.45733  0.17706  0.29073  1.0000
  C   C120      1.0  0.45694  0.21316  0.29012  1.0000
  C   C121      1.0  0.43041  0.23235  0.32991  1.0000
  C   C122      1.0  0.43249  0.26829  0.33342  1.0000
  H   H82       1.0  0.41003  0.22031  0.35912  1.0000
  H   H83       1.0  0.41351  0.28170  0.36489  1.0000
  H   H84       1.0  0.43766  0.16444  0.32179  1.0000
  C   C123      1.0  0.48643  0.12281  0.27296  1.0000
  H   H85       1.0  0.46530  0.11108  0.29926  1.0000
  C   C124      1.0  0.71194  0.03129  0.35828  1.0000
  C   C125      1.0  0.67664  0.02929  0.33916  1.0000
  H   H86       1.0  0.66274  0.05153  0.33998  1.0000
  C   C126      1.0  0.76615  0.00101  0.37941  1.0000
  C   C127      1.0  0.83758  0.00027  0.40874  1.0000
  C   C128      1.0  0.81888  0.03148  0.41067  1.0000
  C   C129      1.0  0.78319  0.03237  0.39571  1.0000
  C   C130      1.0  0.76416  0.06315  0.39433  1.0000
  C   C131      1.0  0.72879  0.06260  0.37597  1.0000
  H   H87       1.0  0.77593  0.08614  0.40590  1.0000
  H   H88       1.0  0.71552  0.08521  0.37490  1.0000
  H   H89       1.0  0.83149  0.05422  0.42009  1.0000
  C   C132      1.0  0.87369  0.00227  0.41476  1.0000
  H   H90       1.0  0.88534  0.02574  0.41702  1.0000
  C   C133      1.0  0.99300  0.95113  0.32926  1.0000
  C   C134      1.0  0.96874  0.92505  0.34413  1.0000
  H   H91       1.0  0.51554  0.94423  0.30024  1.0000
  C   C135      1.0  0.52476  0.57239  0.28939  1.0000
  C   C136      1.0  0.50062  0.54665  0.30948  1.0000
  H   H92       1.0  0.97537  0.55286  0.30434  1.0000
  N   N25       1.0  0.51609  0.60516  0.27146  1.0000
  N   N26       1.0  0.97371  0.89196  0.32215  1.0000
  C   C137      1.0  0.99490  0.83801  0.26976  1.0000
  C   C138      1.0  0.01975  0.81747  0.22521  1.0000
  N   N27       1.0  0.01467  0.78310  0.22082  1.0000
  C   C139      1.0  0.98715  0.76642  0.25449  1.0000
  N   N28       1.0  0.01086  0.71203  0.21517  1.0000
  C   C140      1.0  0.01260  0.67735  0.21579  1.0000
  C   C141      1.0  0.05170  0.82902  0.18112  1.0000
  H   H93       1.0  0.05494  0.85669  0.17925  1.0000
  H   H94       1.0  0.05184  0.82001  0.11257  1.0000
  H   H95       1.0  0.57372  0.81806  0.21540  1.0000
  C   C142      1.0  0.04279  0.66255  0.17023  1.0000
  H   H96       1.0  0.05701  0.68198  0.13327  1.0000
  H   H97       1.0  0.03466  0.64289  0.12320  1.0000
  H   H98       1.0  0.56020  0.65145  0.21877  1.0000
  C   C143      1.0  0.99882  0.87358  0.28343  1.0000
  H   H99       1.0  0.02033  0.88613  0.26349  1.0000
  C   C144      1.0  0.66012  0.99738  0.32370  1.0000
  C   C145      1.0  0.68091  0.96733  0.32381  1.0000
  N   N29       1.0  0.71477  0.97047  0.34258  1.0000
  C   C146      1.0  0.73086  0.00041  0.36051  1.0000
  N   N30       1.0  0.78430  0.97154  0.38079  1.0000
  C   C147      1.0  0.81850  0.96942  0.39516  1.0000
  C   C148      1.0  0.67013  0.93179  0.30283  1.0000
  H   H100      1.0  0.64444  0.92992  0.27532  1.0000
  H   H101      1.0  0.67132  0.91624  0.36281  1.0000
  H   H102      1.0  0.68755  0.42085  0.25367  1.0000
  C   C149      1.0  0.83237  0.93412  0.39184  1.0000
  H   H103      1.0  0.81213  0.91497  0.38474  1.0000
  H   H104      1.0  0.84618  0.92847  0.45297  1.0000
  H   H105      1.0  0.84945  0.43147  0.33496  1.0000
  C   C150      1.0  0.62416  0.99612  0.31437  1.0000
  H   H106      1.0  0.61184  0.97315  0.31490  1.0000
  C   C151      1.0  0.98560  0.98622  0.34549  1.0000
  C   C152      1.0  0.93622  0.93346  0.37781  1.0000
  C   C153      1.0  0.92716  0.96805  0.38995  1.0000
  C   C154      1.0  0.95191  0.99383  0.37582  1.0000
  O   O7        1.0  0.91235  0.90827  0.38887  1.0000
  C   C155      1.0  0.51035  0.51229  0.32722  1.0000
  C   C156      1.0  0.54605  0.50517  0.32482  1.0000
  C   C157      1.0  0.57080  0.53055  0.30626  1.0000
  C   C158      1.0  0.55994  0.56430  0.28902  1.0000
  O   O8        1.0  0.58361  0.58896  0.27008  1.0000
  H   H107      1.0  0.91458  0.90056  0.45069  1.0000
  H   H108      1.0  0.58994  0.59941  0.32714  1.0000
  H   H109      1.0  0.94486  0.51846  0.38868  1.0000
  H   H110      1.0  0.55469  0.98160  0.34323  1.0000
  N   N31       1.0  0.60496  0.52476  0.30708  1.0000
  N   N32       1.0  0.89360  0.97444  0.40397  1.0000
  C   C159      1.0  0.46105  0.78546  0.29685  1.0000
  C   C160      1.0  0.46529  0.82115  0.30331  1.0000
  H   H111      1.0  0.44668  0.83469  0.33588  1.0000
  C   C161      1.0  0.48509  0.73048  0.25136  1.0000
  C   C162      1.0  0.48583  0.65844  0.25780  1.0000
  C   C163      1.0  0.45733  0.67706  0.29073  1.0000
  C   C164      1.0  0.45694  0.71316  0.29012  1.0000
  C   C165      1.0  0.43041  0.73235  0.32991  1.0000
  C   C166      1.0  0.43249  0.76829  0.33342  1.0000
  H   H112      1.0  0.41003  0.72031  0.35912  1.0000
  H   H113      1.0  0.41351  0.78170  0.36489  1.0000
  H   H114      1.0  0.43766  0.66444  0.32179  1.0000
  C   C167      1.0  0.48643  0.62281  0.27296  1.0000
  H   H115      1.0  0.46530  0.61108  0.29926  1.0000
  C   C168      1.0  0.71194  0.53129  0.35828  1.0000
  C   C169      1.0  0.67664  0.52929  0.33916  1.0000
  H   H116      1.0  0.66274  0.55153  0.33998  1.0000
  C   C170      1.0  0.76615  0.50101  0.37941  1.0000
  C   C171      1.0  0.83758  0.50027  0.40874  1.0000
  C   C172      1.0  0.81888  0.53148  0.41067  1.0000
  C   C173      1.0  0.78319  0.53237  0.39571  1.0000
  C   C174      1.0  0.76416  0.56315  0.39433  1.0000
  C   C175      1.0  0.72879  0.56260  0.37597  1.0000
  H   H117      1.0  0.77593  0.58615  0.40590  1.0000
  H   H118      1.0  0.71552  0.58521  0.37490  1.0000
  H   H119      1.0  0.83149  0.55422  0.42009  1.0000
  C   C176      1.0  0.87369  0.50227  0.41476  1.0000
  H   H120      1.0  0.88534  0.52573  0.41702  1.0000
