data_image0
_chemical_formula_structural       C4H2C4H2N2C4H2C4H2N2C4H2C4H2N2C6H4CHC6H4CHC6H4CHC6H4CHC6H4CHC6H4CHC2HC2HN2C2HC2HN2C2HC2HN2C4H2C2H2CHC4H2C2H2CHC4H2C2H2CHC4H2C2H2CHC4H2C2H2CHC4H2C2H2CH
_chemical_formula_sum              "C120 H78 N12"
_cell_length_a       39.2731
_cell_length_b       39.2731
_cell_length_c       14.9641
_cell_angle_alpha    90
_cell_angle_beta     90
_cell_angle_gamma    120

_space_group_name_H-M_alt    "P 1"
_space_group_IT_number       1

loop_
  _space_group_symop_operation_xyz
  'x, y, z'

loop_
  _atom_site_type_symbol
  _atom_site_label
  _atom_site_symmetry_multiplicity
  _atom_site_fract_x
  _atom_site_fract_y
  _atom_site_fract_z
  _atom_site_occupancy
  C   C1        1.0  0.98047  0.49017  0.30914  1.0000
  C   C2        1.0  0.89605  0.44700  0.30926  1.0000
  C   C3        1.0  0.91682  0.42658  0.31389  1.0000
  C   C4        1.0  0.95838  0.44825  0.31567  1.0000
  H   H1        1.0  0.97208  0.43226  0.32211  1.0000
  H   H2        1.0  0.86588  0.43174  0.30922  1.0000
  C   C5        1.0  0.02358  0.51216  0.30901  1.0000
  C   C6        1.0  0.04567  0.55408  0.31570  1.0000
  C   C7        1.0  0.08722  0.57576  0.31366  1.0000
  C   C8        1.0  0.10800  0.55538  0.30850  1.0000
  H   H3        1.0  0.03197  0.57007  0.32248  1.0000
  H   H4        1.0  0.13817  0.57065  0.30831  1.0000
  N   N1        1.0  0.10919  0.61465  0.31511  1.0000
  N   N2        1.0  0.89483  0.38770  0.31519  1.0000
  C   C9        1.0  0.51272  0.49035  0.30865  1.0000
  C   C10       1.0  0.55595  0.44915  0.30619  1.0000
  C   C11       1.0  0.57633  0.49030  0.31232  1.0000
  C   C12       1.0  0.55464  0.51015  0.31525  1.0000
  H   H5        1.0  0.57063  0.53981  0.32268  1.0000
  H   H6        1.0  0.57122  0.43426  0.30547  1.0000
  C   C13       1.0  0.49072  0.51147  0.30974  1.0000
  C   C14       1.0  0.44879  0.49161  0.31604  1.0000
  C   C15       1.0  0.42713  0.51151  0.31516  1.0000
  C   C16       1.0  0.44757  0.55272  0.31183  1.0000
  H   H7        1.0  0.43278  0.46188  0.32155  1.0000
  H   H8        1.0  0.43230  0.56762  0.31219  1.0000
  N   N3        1.0  0.38823  0.49462  0.31602  1.0000
  N   N4        1.0  0.61520  0.50719  0.31407  1.0000
  C   C17       1.0  0.51258  0.02315  0.30839  1.0000
  C   C18       1.0  0.55385  0.10759  0.30840  1.0000
  C   C19       1.0  0.51266  0.08682  0.31285  1.0000
  C   C20       1.0  0.49276  0.04527  0.31457  1.0000
  H   H9        1.0  0.46306  0.03159  0.32068  1.0000
  H   H10       1.0  0.56877  0.13776  0.30836  1.0000
  C   C21       1.0  0.49145  0.98003  0.30837  1.0000
  C   C22       1.0  0.51128  0.95792  0.31465  1.0000
  C   C23       1.0  0.49138  0.91637  0.31292  1.0000
  C   C24       1.0  0.45020  0.89560  0.30833  1.0000
  H   H11       1.0  0.54098  0.97160  0.32088  1.0000
  H   H12       1.0  0.43530  0.86543  0.30826  1.0000
  N   N5        1.0  0.50825  0.89436  0.31445  1.0000
  N   N6        1.0  0.49578  0.10883  0.31419  1.0000
  C   C25       1.0  0.15729  0.46019  0.28673  1.0000
  C   C26       1.0  0.18778  0.45134  0.27853  1.0000
  C   C27       1.0  0.24887  0.45522  0.33727  1.0000
  C   C28       1.0  0.27241  0.46914  0.25940  1.0000
  C   C29       1.0  0.30825  0.46932  0.25309  1.0000
  C   C30       1.0  0.32147  0.45520  0.32426  1.0000
  H   H13       1.0  0.26497  0.48166  0.20865  1.0000
  H   H14       1.0  0.32540  0.48138  0.19757  1.0000
  H   H15       1.0  0.13869  0.45433  0.23373  1.0000
  H   H16       1.0  0.19008  0.43900  0.22023  1.0000
  C   C31       1.0  0.35869  0.45971  0.32319  1.0000
  H   H17       1.0  0.36227  0.43673  0.33378  1.0000
  C   C32       1.0  0.54062  0.69676  0.28755  1.0000
  C   C33       1.0  0.54998  0.73624  0.27907  1.0000
  C   C34       1.0  0.54771  0.79419  0.33848  1.0000
  C   C35       1.0  0.53226  0.80306  0.26214  1.0000
  C   C36       1.0  0.53198  0.83866  0.25585  1.0000
  C   C37       1.0  0.54741  0.86670  0.32555  1.0000
  H   H18       1.0  0.51874  0.78261  0.21270  1.0000
  H   H19       1.0  0.51888  0.84320  0.20152  1.0000
  H   H20       1.0  0.54501  0.68342  0.23355  1.0000
  H   H21       1.0  0.56122  0.75032  0.21964  1.0000
  C   C38       1.0  0.54294  0.89948  0.32482  1.0000
  H   H22       1.0  0.56565  0.92585  0.33854  1.0000
  C   C39       1.0  0.30594  0.84534  0.28659  1.0000
  C   C40       1.0  0.26655  0.81493  0.27864  1.0000
  C   C41       1.0  0.20918  0.75427  0.33839  1.0000
  C   C42       1.0  0.19989  0.73025  0.26143  1.0000
  C   C43       1.0  0.16431  0.69432  0.25548  1.0000
  C   C44       1.0  0.13671  0.68142  0.32614  1.0000
  H   H23       1.0  0.22003  0.73741  0.21118  1.0000
  H   H24       1.0  0.15946  0.67688  0.20061  1.0000
  H   H25       1.0  0.31885  0.86344  0.23290  1.0000
  H   H26       1.0  0.25208  0.81223  0.21987  1.0000
  C   C45       1.0  0.10398  0.64416  0.32547  1.0000
  H   H27       1.0  0.07761  0.64044  0.33943  1.0000
  C   C46       1.0  0.84590  0.54102  0.28629  1.0000
  C   C47       1.0  0.81543  0.54991  0.27823  1.0000
  C   C48       1.0  0.75499  0.54695  0.33837  1.0000
  C   C49       1.0  0.73067  0.53160  0.26202  1.0000
  C   C50       1.0  0.69469  0.53116  0.25610  1.0000
  C   C51       1.0  0.68200  0.54632  0.32621  1.0000
  H   H28       1.0  0.73767  0.51830  0.21224  1.0000
  H   H29       1.0  0.67708  0.51817  0.20167  1.0000
  H   H30       1.0  0.86374  0.54581  0.23230  1.0000
  H   H31       1.0  0.81243  0.56121  0.21904  1.0000
  C   C52       1.0  0.64473  0.54181  0.32563  1.0000
  H   H32       1.0  0.64097  0.56435  0.34066  1.0000
  C   C53       1.0  0.46001  0.30467  0.28464  1.0000
  C   C54       1.0  0.45166  0.26547  0.27682  1.0000
  C   C55       1.0  0.45581  0.20863  0.33690  1.0000
  C   C56       1.0  0.47050  0.19932  0.25989  1.0000
  C   C57       1.0  0.47098  0.16380  0.25408  1.0000
  C   C58       1.0  0.45645  0.13629  0.32491  1.0000
  H   H33       1.0  0.48328  0.21939  0.20943  1.0000
  H   H34       1.0  0.48351  0.15893  0.19912  1.0000
  H   H35       1.0  0.45431  0.31729  0.23115  1.0000
  H   H36       1.0  0.43986  0.25082  0.21825  1.0000
  C   C59       1.0  0.46104  0.10359  0.32429  1.0000
  H   H37       1.0  0.43835  0.07719  0.33784  1.0000
  C   C60       1.0  0.69820  0.15684  0.28725  1.0000
  C   C61       1.0  0.73755  0.18732  0.27916  1.0000
  C   C62       1.0  0.79480  0.24821  0.33838  1.0000
  C   C63       1.0  0.80420  0.27201  0.26099  1.0000
  C   C64       1.0  0.83983  0.30789  0.25480  1.0000
  C   C65       1.0  0.86734  0.32094  0.32562  1.0000
  H   H38       1.0  0.78413  0.26471  0.21054  1.0000
  H   H39       1.0  0.84476  0.32518  0.19961  1.0000
  H   H40       1.0  0.68540  0.13847  0.23393  1.0000
  H   H41       1.0  0.75211  0.18983  0.22062  1.0000
  C   C66       1.0  0.90009  0.35818  0.32467  1.0000
  H   H42       1.0  0.92651  0.36185  0.33778  1.0000
  C   C67       1.0  0.95750  0.50909  0.30300  1.0000
  C   C68       1.0  0.91605  0.48825  0.30597  1.0000
  H   H43       1.0  0.97031  0.53878  0.29653  1.0000
  C   C69       1.0  0.08801  0.51413  0.30511  1.0000
  C   C70       1.0  0.04656  0.49327  0.30251  1.0000
  H   H44       1.0  0.03375  0.46358  0.29606  1.0000
  N   N7        1.0  0.10916  0.49622  0.30373  1.0000
  N   N8        1.0  0.89498  0.50624  0.30470  1.0000
  C   C71       1.0  0.49382  0.44850  0.30141  1.0000
  C   C72       1.0  0.51472  0.42792  0.30279  1.0000
  H   H45       1.0  0.46412  0.43161  0.29519  1.0000
  C   C73       1.0  0.48884  0.57400  0.30876  1.0000
  C   C74       1.0  0.50964  0.55337  0.30464  1.0000
  H   H46       1.0  0.53933  0.57026  0.29817  1.0000
  N   N9        1.0  0.50700  0.61310  0.30775  1.0000
  N   N10       1.0  0.49698  0.38891  0.30111  1.0000
  C   C75       1.0  0.55448  0.04613  0.30259  1.0000
  C   C76       1.0  0.57509  0.08758  0.30537  1.0000
  H   H47       1.0  0.57138  0.03332  0.29655  1.0000
  C   C77       1.0  0.42894  0.91560  0.30530  1.0000
  C   C78       1.0  0.44956  0.95705  0.30248  1.0000
  H   H48       1.0  0.43266  0.96986  0.29644  1.0000
  N   N11       1.0  0.38987  0.89453  0.30434  1.0000
  N   N12       1.0  0.61414  0.10868  0.30428  1.0000
  C   C79       1.0  0.15345  0.47844  0.36473  1.0000
  C   C80       1.0  0.21539  0.46011  0.34812  1.0000
  C   C81       1.0  0.21077  0.47722  0.42708  1.0000
  C   C82       1.0  0.18043  0.48616  0.43522  1.0000
  H   H49       1.0  0.23076  0.48531  0.47798  1.0000
  H   H50       1.0  0.17943  0.50010  0.49219  1.0000
  C   C83       1.0  0.29736  0.43969  0.40054  1.0000
  C   C84       1.0  0.26170  0.43990  0.40699  1.0000
  H   H51       1.0  0.30644  0.42988  0.45385  1.0000
  H   H52       1.0  0.24561  0.42964  0.46449  1.0000
  C   C85       1.0  0.12676  0.49191  0.37181  1.0000
  H   H53       1.0  0.12443  0.50261  0.43058  1.0000
  C   C86       1.0  0.52355  0.67531  0.36698  1.0000
  C   C87       1.0  0.54290  0.75587  0.34974  1.0000
  C   C88       1.0  0.52718  0.73486  0.43020  1.0000
  C   C89       1.0  0.51773  0.69543  0.43862  1.0000
  H   H54       1.0  0.52029  0.74734  0.48203  1.0000
  H   H55       1.0  0.50468  0.68099  0.49674  1.0000
  C   C90       1.0  0.56445  0.85883  0.40011  1.0000
  C   C91       1.0  0.56439  0.82302  0.40657  1.0000
  H   H56       1.0  0.57530  0.87822  0.45240  1.0000
  H   H57       1.0  0.57575  0.81774  0.46298  1.0000
  C   C92       1.0  0.50908  0.63494  0.37421  1.0000
  H   H58       1.0  0.49643  0.62180  0.43169  1.0000
  C   C93       1.0  0.32786  0.84964  0.36517  1.0000
  C   C94       1.0  0.24749  0.78786  0.34906  1.0000
  C   C95       1.0  0.26901  0.79300  0.42863  1.0000
  C   C96       1.0  0.30834  0.82327  0.43652  1.0000
  H   H59       1.0  0.25695  0.77339  0.48018  1.0000
  H   H60       1.0  0.32314  0.82460  0.49398  1.0000
  C   C97       1.0  0.14498  0.70603  0.40140  1.0000
  C   C98       1.0  0.18078  0.74181  0.40752  1.0000
  H   H61       1.0  0.12592  0.69727  0.45434  1.0000
  H   H62       1.0  0.18637  0.75826  0.46436  1.0000
  C   C99       1.0  0.36811  0.87606  0.37200  1.0000
  H   H63       1.0  0.38131  0.87766  0.43012  1.0000
  C   C100      1.0  0.85058  0.52400  0.36546  1.0000
  C   C101      1.0  0.78868  0.54241  0.34908  1.0000
  C   C102      1.0  0.79424  0.52668  0.42923  1.0000
  C   C103      1.0  0.82456  0.51770  0.43724  1.0000
  H   H64       1.0  0.77487  0.51951  0.48118  1.0000
  H   H65       1.0  0.82619  0.50467  0.49517  1.0000
  C   C104      1.0  0.70691  0.56326  0.40081  1.0000
  C   C105      1.0  0.74274  0.56335  0.40689  1.0000
  H   H66       1.0  0.69833  0.57394  0.45335  1.0000
  H   H67       1.0  0.75942  0.57467  0.46329  1.0000
  C   C106      1.0  0.87704  0.51022  0.37253  1.0000
  H   H68       1.0  0.87906  0.49920  0.43111  1.0000
  C   C107      1.0  0.47748  0.32675  0.36309  1.0000
  C   C108      1.0  0.46020  0.24681  0.34724  1.0000
  C   C109      1.0  0.47653  0.26854  0.42659  1.0000
  C   C110      1.0  0.48496  0.30768  0.43437  1.0000
  H   H69       1.0  0.48442  0.25677  0.47813  1.0000
  H   H70       1.0  0.49837  0.32268  0.49168  1.0000
  C   C111      1.0  0.44020  0.14460  0.40029  1.0000
  C   C112      1.0  0.44009  0.18033  0.40627  1.0000
  H   H71       1.0  0.43002  0.12559  0.45335  1.0000
  H   H72       1.0  0.42925  0.18593  0.46314  1.0000
  C   C113      1.0  0.49034  0.36678  0.37003  1.0000
  H   H73       1.0  0.49904  0.37953  0.42981  1.0000
  C   C114      1.0  0.67620  0.15275  0.36556  1.0000
  C   C115      1.0  0.75648  0.21467  0.34917  1.0000
  C   C116      1.0  0.73486  0.20976  0.42846  1.0000
  C   C117      1.0  0.69557  0.17943  0.43649  1.0000
  H   H74       1.0  0.74683  0.22956  0.47970  1.0000
  H   H75       1.0  0.68068  0.17824  0.49371  1.0000
  C   C118      1.0  0.85895  0.29657  0.40136  1.0000
  C   C119      1.0  0.82312  0.26085  0.40772  1.0000
  H   H76       1.0  0.87796  0.30547  0.45443  1.0000
  H   H77       1.0  0.81744  0.24457  0.46486  1.0000
  C   C120      1.0  0.63601  0.12612  0.37251  1.0000
  H   H78       1.0  0.62297  0.12374  0.43129  1.0000
