data_image0
_chemical_formula_structural       C15H12C4HC3NHNO2C4HC3NHNO2C2NC2NC5NC3NC17H14CNC2H2NO2CNC2H2NO2
_chemical_formula_sum              "C64 H34 N12 O8"
_cell_length_a       25.597
_cell_length_b       25.597
_cell_length_c       14.9313
_cell_angle_alpha    90
_cell_angle_beta     90
_cell_angle_gamma    90

_space_group_name_H-M_alt    "P 1"
_space_group_IT_number       1

loop_
  _space_group_symop_operation_xyz
  'x, y, z'

loop_
  _atom_site_type_symbol
  _atom_site_label
  _atom_site_symmetry_multiplicity
  _atom_site_fract_x
  _atom_site_fract_y
  _atom_site_fract_z
  _atom_site_occupancy
  C   C1        1.0  0.89055  0.95278  0.33477  1.0000
  C   C2        1.0  0.05136  0.88921  0.33699  1.0000
  C   C3        1.0  0.00019  0.13834  0.33774  1.0000
  C   C4        1.0  0.95075  0.11316  0.33689  1.0000
  C   C5        1.0  0.86404  0.09971  0.33705  1.0000
  C   C6        1.0  0.90210  0.13790  0.33698  1.0000
  C   C7        1.0  0.72528  0.99499  0.25474  1.0000
  C   C8        1.0  0.78028  0.99597  0.25461  1.0000
  C   C9        1.0  0.00045  0.19408  0.33755  1.0000
  C   C10       1.0  0.99431  0.27698  0.25644  1.0000
  C   C11       1.0  0.99513  0.22198  0.25650  1.0000
  C   C12       1.0  0.22186  0.01838  0.26039  1.0000
  C   C13       1.0  0.27684  0.01869  0.25887  1.0000
  C   C14       1.0  0.01766  0.78019  0.25711  1.0000
  C   C15       1.0  0.01747  0.72521  0.25591  1.0000
  H   H1        1.0  0.03123  0.70703  0.19969  1.0000
  H   H2        1.0  0.03043  0.79995  0.20166  1.0000
  H   H3        1.0  0.89673  0.82693  0.32327  1.0000
  H   H4        1.0  0.20190  0.03095  0.20501  1.0000
  H   H5        1.0  0.29479  0.03261  0.20256  1.0000
  H   H6        1.0  0.10501  0.17582  0.34812  1.0000
  H   H7        1.0  0.82475  0.10682  0.33667  1.0000
  H   H8        1.0  0.89482  0.17716  0.33726  1.0000
  H   H9        1.0  0.99127  0.20243  0.19706  1.0000
  H   H10       1.0  0.98917  0.29574  0.19659  1.0000
  H   H11       1.0  0.79981  0.99247  0.19508  1.0000
  H   H12       1.0  0.70646  0.98999  0.19491  1.0000
  C   C16       1.0  0.99864  0.63944  0.32835  1.0000
  C   C17       1.0  0.99533  0.52818  0.32736  1.0000
  C   C18       1.0  0.98712  0.55583  0.24626  1.0000
  C   C19       1.0  0.98838  0.61118  0.24858  1.0000
  H   H13       1.0  0.98031  0.63086  0.19061  1.0000
  C   C20       1.0  0.99427  0.47277  0.33409  1.0000
  C   C21       1.0  0.99729  0.36179  0.33706  1.0000
  C   C22       1.0  0.02289  0.39157  0.27046  1.0000
  N   N1        1.0  0.02058  0.44447  0.27160  1.0000
  H   H14       1.0  0.04439  0.37405  0.22126  1.0000
  N   N2        1.0  0.97622  0.52836  0.16612  1.0000
  O   O1        1.0  0.01012  0.53758  0.10734  1.0000
  O   O2        1.0  0.93209  0.54008  0.13525  1.0000
  C   C23       1.0  0.36290  0.99986  0.33026  1.0000
  C   C24       1.0  0.47414  0.99620  0.32794  1.0000
  C   C25       1.0  0.44614  0.98816  0.24715  1.0000
  C   C26       1.0  0.39081  0.98956  0.25014  1.0000
  H   H15       1.0  0.37088  0.98162  0.19238  1.0000
  C   C27       1.0  0.52957  0.99492  0.33399  1.0000
  C   C28       1.0  0.64056  0.99758  0.33581  1.0000
  C   C29       1.0  0.61063  0.02344  0.26972  1.0000
  N   N3        1.0  0.55773  0.02129  0.27138  1.0000
  H   H16       1.0  0.62804  0.04501  0.22049  1.0000
  N   N4        1.0  0.47327  0.97722  0.16667  1.0000
  O   O3        1.0  0.46392  0.01119  0.10805  1.0000
  O   O4        1.0  0.46131  0.93314  0.13586  1.0000
  C   C30       1.0  0.90423  0.86602  0.32843  1.0000
  C   C31       1.0  0.86609  0.90409  0.32933  1.0000
  N   N5        1.0  0.94249  0.94230  0.33814  1.0000
  C   C32       1.0  0.95300  0.89037  0.33469  1.0000
  C   C33       1.0  0.00194  0.86381  0.33576  1.0000
  N   N6        1.0  0.06144  0.94111  0.33751  1.0000
  C   C34       1.0  0.11330  0.95137  0.33735  1.0000
  C   C35       1.0  0.13808  0.90275  0.33599  1.0000
  C   C36       1.0  0.10005  0.86459  0.33742  1.0000
  C   C37       1.0  0.13852  0.00090  0.33825  1.0000
  C   C38       1.0  0.11178  0.04974  0.33965  1.0000
  N   N7        1.0  0.05980  0.06005  0.33673  1.0000
  C   C39       1.0  0.04915  0.11196  0.33945  1.0000
  C   C40       1.0  0.09776  0.13661  0.34444  1.0000
  C   C41       1.0  0.13598  0.09859  0.34545  1.0000
  N   N8        1.0  0.94080  0.06130  0.33707  1.0000
  C   C42       1.0  0.88897  0.05117  0.33717  1.0000
  C   C43       1.0  0.86399  0.00164  0.33609  1.0000
  C   C44       1.0  0.80824  0.00109  0.33564  1.0000
  C   C45       1.0  0.78008  0.00549  0.41656  1.0000
  C   C46       1.0  0.72511  0.00457  0.41636  1.0000
  C   C47       1.0  0.69652  0.99914  0.33557  1.0000
  C   C48       1.0  0.00508  0.22232  0.41837  1.0000
  C   C49       1.0  0.00438  0.27731  0.41797  1.0000
  C   C50       1.0  0.99882  0.30583  0.33712  1.0000
  C   C51       1.0  0.19446  0.00155  0.33725  1.0000
  C   C52       1.0  0.30669  0.00102  0.33303  1.0000
  C   C53       1.0  0.27861  0.98408  0.40968  1.0000
  C   C54       1.0  0.22363  0.98493  0.41232  1.0000
  C   C55       1.0  0.00146  0.80788  0.33407  1.0000
  C   C56       1.0  0.98439  0.77901  0.40918  1.0000
  C   C57       1.0  0.98305  0.72404  0.40687  1.0000
  C   C58       1.0  0.99980  0.69566  0.33042  1.0000
  H   H17       1.0  0.96865  0.70503  0.46180  1.0000
  H   H18       1.0  0.97199  0.79791  0.46575  1.0000
  H   H19       1.0  0.82693  0.89669  0.32527  1.0000
  H   H20       1.0  0.96888  0.96874  0.34419  1.0000
  H   H21       1.0  0.03346  0.03357  0.33060  1.0000
  H   H22       1.0  0.10754  0.82538  0.33741  1.0000
  H   H23       1.0  0.17729  0.89537  0.33491  1.0000
  H   H24       1.0  0.20494  0.97222  0.46888  1.0000
  H   H25       1.0  0.29784  0.96976  0.46444  1.0000
  H   H26       1.0  0.17507  0.10622  0.35011  1.0000
  H   H27       1.0  0.00902  0.20302  0.47804  1.0000
  H   H28       1.0  0.00865  0.29637  0.47775  1.0000
  H   H29       1.0  0.70612  0.00872  0.47623  1.0000
  H   H30       1.0  0.79942  0.00948  0.47619  1.0000
  C   C59       1.0  0.00746  0.60900  0.40604  1.0000
  N   N9        1.0  0.00539  0.55615  0.40277  1.0000
  C   C60       1.0  0.96769  0.44549  0.40315  1.0000
  C   C61       1.0  0.96962  0.39016  0.40321  1.0000
  H   H31       1.0  0.94918  0.37047  0.45149  1.0000
  H   H32       1.0  0.01644  0.62589  0.46604  1.0000
  N   N10       1.0  0.93824  0.47330  0.46772  1.0000
  O   O5        1.0  0.95451  0.46447  0.54568  1.0000
  O   O6        1.0  0.89062  0.46157  0.46389  1.0000
  C   C62       1.0  0.39368  0.00852  0.40761  1.0000
  N   N11       1.0  0.44651  0.00628  0.40371  1.0000
  C   C63       1.0  0.55700  0.96804  0.40253  1.0000
  C   C64       1.0  0.61234  0.96978  0.40199  1.0000
  H   H33       1.0  0.63213  0.94921  0.44998  1.0000
  H   H34       1.0  0.37705  0.01746  0.46785  1.0000
  N   N12       1.0  0.52933  0.93854  0.46720  1.0000
  O   O7        1.0  0.53851  0.95459  0.54517  1.0000
  O   O8        1.0  0.54088  0.89089  0.46291  1.0000
