data_image0
_chemical_formula_structural       C13H9C13H9C13H9C13H9C4NC2NHNHC4NC2NHNHC4NC2NHNHC2H2CH3C2H2CH3C2H2CH3C17H12C17H12C17H12C17H12C2H2CH3C2H2CH3C2H2CH3C4NC2NHNHC4NC2NHNHC4NC2NHNH
_chemical_formula_sum              "C174 H126 N18"
_cell_length_a       57.1473
_cell_length_b       57.1307
_cell_length_c       14.989
_cell_angle_alpha    90
_cell_angle_beta     90
_cell_angle_gamma    120.005

_space_group_name_H-M_alt    "P 1"
_space_group_IT_number       1

loop_
  _space_group_symop_operation_xyz
  'x, y, z'

loop_
  _atom_site_type_symbol
  _atom_site_label
  _atom_site_symmetry_multiplicity
  _atom_site_fract_x
  _atom_site_fract_y
  _atom_site_fract_z
  _atom_site_occupancy
  C   C1        1.0  0.90812  0.83745  0.32655  1.0000
  C   C2        1.0  0.93402  0.89498  0.33073  1.0000
  C   C3        1.0  0.90564  0.87898  0.33859  1.0000
  C   C4        1.0  0.89288  0.85059  0.33726  1.0000
  C   C5        1.0  0.94617  0.92293  0.32895  1.0000
  C   C6        1.0  0.06511  0.02362  0.32928  1.0000
  C   C7        1.0  0.10903  0.02699  0.33896  1.0000
  C   C8        1.0  0.15058  0.07099  0.32695  1.0000
  C   C9        1.0  0.13742  0.04261  0.33769  1.0000
  C   C10       1.0  0.96446  0.04192  0.32924  1.0000
  C   C11       1.0  0.92028  0.03876  0.32070  1.0000
  C   C12       1.0  0.91704  0.07997  0.32674  1.0000
  C   C13       1.0  0.90469  0.05156  0.31879  1.0000
  H   H1        1.0  0.87227  0.83957  0.34205  1.0000
  H   H2        1.0  0.89398  0.88786  0.34515  1.0000
  H   H3        1.0  0.91075  0.01821  0.31342  1.0000
  H   H4        1.0  0.10014  0.00645  0.34547  1.0000
  H   H5        1.0  0.14842  0.03299  0.34234  1.0000
  H   H6        1.0  0.88420  0.03992  0.31146  1.0000
  H   H7        1.0  0.05713  0.00866  0.28486  1.0000
  H   H8        1.0  0.93922  0.93093  0.28457  1.0000
  H   H9        1.0  0.97942  0.04890  0.28491  1.0000
  C   C14       1.0  0.52130  0.36585  0.32773  1.0000
  C   C15       1.0  0.48174  0.31018  0.31105  1.0000
  C   C16       1.0  0.50836  0.32007  0.27926  1.0000
  C   C17       1.0  0.52792  0.34754  0.28767  1.0000
  C   C18       1.0  0.46363  0.28254  0.30684  1.0000
  C   C19       1.0  0.35146  0.18032  0.31838  1.0000
  C   C20       1.0  0.30767  0.17722  0.30913  1.0000
  C   C21       1.0  0.26586  0.13338  0.31933  1.0000
  C   C22       1.0  0.27928  0.16178  0.30895  1.0000
  C   C23       1.0  0.46027  0.17269  0.34339  1.0000
  C   C24       1.0  0.50784  0.18714  0.35953  1.0000
  C   C25       1.0  0.52324  0.15410  0.35842  1.0000
  C   C26       1.0  0.52879  0.18110  0.36413  1.0000
  H   H10       1.0  0.54726  0.35389  0.26692  1.0000
  H   H11       1.0  0.51406  0.30719  0.25236  1.0000
  H   H12       1.0  0.51269  0.20697  0.36261  1.0000
  H   H13       1.0  0.31671  0.19774  0.30138  1.0000
  H   H14       1.0  0.26846  0.17152  0.30173  1.0000
  H   H15       1.0  0.54825  0.19673  0.37002  1.0000
  H   H16       1.0  0.35965  0.19363  0.26890  1.0000
  H   H17       1.0  0.46372  0.27291  0.25150  1.0000
  H   H18       1.0  0.44946  0.16763  0.28740  1.0000
  C   C27       1.0  0.62196  0.15535  0.32711  1.0000
  C   C28       1.0  0.67765  0.17139  0.31122  1.0000
  C   C29       1.0  0.66759  0.18757  0.27562  1.0000
  C   C30       1.0  0.64013  0.17971  0.28366  1.0000
  C   C31       1.0  0.70531  0.18100  0.30744  1.0000
  C   C32       1.0  0.80755  0.17137  0.31846  1.0000
  C   C33       1.0  0.81071  0.13070  0.30902  1.0000
  C   C34       1.0  0.85456  0.13278  0.31913  1.0000
  C   C35       1.0  0.82617  0.11777  0.30877  1.0000
  C   C36       1.0  0.81532  0.28786  0.34336  1.0000
  C   C37       1.0  0.80088  0.32101  0.35908  1.0000
  C   C38       1.0  0.83393  0.36944  0.35844  1.0000
  C   C39       1.0  0.80692  0.34801  0.36374  1.0000
  H   H19       1.0  0.63370  0.19239  0.26028  1.0000
  H   H20       1.0  0.68036  0.20580  0.24637  1.0000
  H   H21       1.0  0.78104  0.30604  0.36186  1.0000
  H   H22       1.0  0.79020  0.11920  0.30127  1.0000
  H   H23       1.0  0.81646  0.09721  0.30149  1.0000
  H   H24       1.0  0.79131  0.35186  0.36940  1.0000
  H   H25       1.0  0.79422  0.16623  0.26904  1.0000
  H   H26       1.0  0.71493  0.19032  0.25158  1.0000
  H   H27       1.0  0.82031  0.28208  0.28729  1.0000
  C   C40       1.0  0.83259  0.46689  0.32702  1.0000
  C   C41       1.0  0.81640  0.50643  0.31103  1.0000
  C   C42       1.0  0.80028  0.48017  0.27546  1.0000
  C   C43       1.0  0.80822  0.46062  0.28351  1.0000
  C   C44       1.0  0.80669  0.52441  0.30730  1.0000
  C   C45       1.0  0.81662  0.63651  0.31865  1.0000
  C   C46       1.0  0.85730  0.68031  0.30933  1.0000
  C   C47       1.0  0.85528  0.72213  0.31943  1.0000
  C   C48       1.0  0.87026  0.70871  0.30909  1.0000
  C   C49       1.0  0.70002  0.52780  0.34296  1.0000
  C   C50       1.0  0.66691  0.48020  0.35836  1.0000
  C   C51       1.0  0.61849  0.46479  0.35824  1.0000
  C   C52       1.0  0.63994  0.45924  0.36313  1.0000
  H   H28       1.0  0.79557  0.44149  0.26019  1.0000
  H   H29       1.0  0.78204  0.47465  0.24624  1.0000
  H   H30       1.0  0.68190  0.47536  0.36091  1.0000
  H   H31       1.0  0.86878  0.67128  0.30163  1.0000
  H   H32       1.0  0.89081  0.71954  0.30187  1.0000
  H   H33       1.0  0.63611  0.43977  0.36861  1.0000
  H   H34       1.0  0.82173  0.62831  0.26916  1.0000
  H   H35       1.0  0.79726  0.52458  0.25155  1.0000
  H   H36       1.0  0.70579  0.53862  0.28698  1.0000
  C   C53       1.0  0.23711  0.11776  0.31841  1.0000
  C   C54       1.0  0.22160  0.11866  0.24603  1.0000
  C   C55       1.0  0.19288  0.10327  0.24829  1.0000
  C   C56       1.0  0.17929  0.08666  0.32270  1.0000
  N   N1        1.0  0.17909  0.10458  0.17614  1.0000
  C   C57       1.0  0.19121  0.11977  0.10292  1.0000
  C   C58       1.0  0.21959  0.13478  0.09961  1.0000
  N   N2        1.0  0.23348  0.13355  0.17145  1.0000
  H   H37       1.0  0.17972  0.11993  0.05100  1.0000
  N   N3        1.0  0.23296  0.15082  0.02439  1.0000
  H   H38       1.0  0.25126  0.16681  0.04340  1.0000
  C   C59       1.0  0.87020  0.11967  0.31820  1.0000
  C   C60       1.0  0.86933  0.10327  0.24581  1.0000
  C   C61       1.0  0.88474  0.08996  0.24807  1.0000
  C   C62       1.0  0.90135  0.09299  0.32248  1.0000
  N   N4        1.0  0.88344  0.07486  0.17592  1.0000
  C   C63       1.0  0.86825  0.07177  0.10271  1.0000
  C   C64       1.0  0.85323  0.08514  0.09938  1.0000
  N   N5        1.0  0.85445  0.10025  0.17121  1.0000
  H   H39       1.0  0.86812  0.06013  0.05078  1.0000
  N   N6        1.0  0.83721  0.08245  0.02412  1.0000
  H   H40       1.0  0.82114  0.08462  0.04317  1.0000
  C   C65       1.0  0.86841  0.75088  0.31842  1.0000
  C   C66       1.0  0.88480  0.76638  0.24597  1.0000
  C   C67       1.0  0.89810  0.79511  0.24805  1.0000
  C   C68       1.0  0.89509  0.80872  0.32242  1.0000
  N   N7        1.0  0.91316  0.80888  0.17582  1.0000
  C   C69       1.0  0.91621  0.79673  0.10264  1.0000
  C   C70       1.0  0.90287  0.76834  0.09949  1.0000
  N   N8        1.0  0.88780  0.75448  0.17145  1.0000
  H   H41       1.0  0.92785  0.80821  0.05066  1.0000
  N   N9        1.0  0.90554  0.75492  0.02438  1.0000
  H   H42       1.0  0.90295  0.73651  0.04338  1.0000
  C   C71       1.0  0.57635  0.14031  0.27235  1.0000
  C   C72       1.0  0.55150  0.13964  0.28095  1.0000
  H   H43       1.0  0.53905  0.13433  0.22659  1.0000
  H   H44       1.0  0.58117  0.13533  0.21220  1.0000
  C   C73       1.0  0.54601  0.16373  0.04108  1.0000
  H   H45       1.0  0.54895  0.14679  0.05809  1.0000
  H   H46       1.0  0.52754  0.15627  0.00165  1.0000
  H   H47       1.0  0.54352  0.17231  0.10296  1.0000
  C   C74       1.0  0.84767  0.43632  0.27235  1.0000
  C   C75       1.0  0.84835  0.41215  0.28097  1.0000
  H   H48       1.0  0.85368  0.40502  0.22661  1.0000
  H   H49       1.0  0.85263  0.44611  0.21218  1.0000
  C   C76       1.0  0.82427  0.38257  0.04110  1.0000
  H   H50       1.0  0.84123  0.40248  0.05812  1.0000
  H   H51       1.0  0.83173  0.37157  0.00170  1.0000
  H   H52       1.0  0.81570  0.37150  0.10300  1.0000
  C   C77       1.0  0.55153  0.41157  0.27294  1.0000
  C   C78       1.0  0.57571  0.43644  0.28123  1.0000
  H   H53       1.0  0.58273  0.44891  0.22689  1.0000
  H   H54       1.0  0.54168  0.40668  0.21289  1.0000
  C   C79       1.0  0.60561  0.44209  0.04118  1.0000
  H   H55       1.0  0.58567  0.43899  0.05837  1.0000
  H   H56       1.0  0.61648  0.46057  0.00185  1.0000
  H   H57       1.0  0.61674  0.44465  0.10304  1.0000
  C   C80       1.0  0.93652  0.85350  0.31863  1.0000
  C   C81       1.0  0.94932  0.88189  0.32050  1.0000
  C   C82       1.0  0.96616  0.93937  0.38463  1.0000
  C   C83       1.0  0.97865  0.96741  0.38243  1.0000
  C   C84       1.0  0.96354  0.98088  0.38314  1.0000
  C   C85       1.0  0.97643  0.00941  0.38254  1.0000
  C   C86       1.0  0.00500  0.02452  0.38327  1.0000
  C   C87       1.0  0.02064  0.01164  0.38258  1.0000
  C   C88       1.0  0.00717  0.98306  0.38319  1.0000
  C   C89       1.0  0.04867  0.02719  0.38486  1.0000
  C   C90       1.0  0.09306  0.03940  0.33114  1.0000
  C   C91       1.0  0.10616  0.06779  0.32093  1.0000
  C   C92       1.0  0.13455  0.08336  0.31907  1.0000
  C   C93       1.0  0.96088  0.02190  0.38480  1.0000
  C   C94       1.0  0.94866  0.05407  0.33104  1.0000
  C   C95       1.0  0.96104  0.08246  0.33890  1.0000
  C   C96       1.0  0.94541  0.09521  0.33755  1.0000
  H   H58       1.0  0.94815  0.84463  0.31137  1.0000
  H   H59       1.0  0.96987  0.89291  0.31324  1.0000
  H   H60       1.0  0.01831  0.97350  0.38454  1.0000
  H   H61       1.0  0.94285  0.96973  0.38445  1.0000
  H   H62       1.0  0.01455  0.04522  0.38468  1.0000
  H   H63       1.0  0.14343  0.10387  0.31179  1.0000
  H   H64       1.0  0.09516  0.07734  0.31369  1.0000
  H   H65       1.0  0.95501  0.11583  0.34230  1.0000
  H   H66       1.0  0.98157  0.09412  0.34551  1.0000
  H   H67       1.0  0.05679  0.04226  0.42887  1.0000
  H   H68       1.0  0.97310  0.93124  0.42861  1.0000
  H   H69       1.0  0.94579  0.01492  0.42869  1.0000
  C   C97       1.0  0.49467  0.35626  0.35835  1.0000
  C   C98       1.0  0.47503  0.32872  0.34942  1.0000
  C   C99       1.0  0.44958  0.26776  0.37776  1.0000
  C   C100      1.0  0.43687  0.23983  0.37798  1.0000
  C   C101      1.0  0.45256  0.22719  0.38738  1.0000
  C   C102      1.0  0.44028  0.19878  0.39232  1.0000
  C   C103      1.0  0.41183  0.18291  0.38876  1.0000
  C   C104      1.0  0.39569  0.19515  0.37966  1.0000
  C   C105      1.0  0.40844  0.22371  0.37536  1.0000
  C   C106      1.0  0.36773  0.17917  0.38095  1.0000
  C   C107      1.0  0.32346  0.16471  0.32048  1.0000
  C   C108      1.0  0.31007  0.13629  0.33074  1.0000
  C   C109      1.0  0.28167  0.12088  0.33079  1.0000
  C   C110      1.0  0.45655  0.18752  0.40547  1.0000
  C   C111      1.0  0.48067  0.16630  0.34996  1.0000
  C   C112      1.0  0.47511  0.13933  0.34198  1.0000
  C   C113      1.0  0.49619  0.13330  0.34593  1.0000
  H   H70       1.0  0.48958  0.36910  0.38898  1.0000
  H   H71       1.0  0.45598  0.32220  0.37331  1.0000
  H   H72       1.0  0.39697  0.23287  0.37141  1.0000
  H   H73       1.0  0.47321  0.23887  0.39147  1.0000
  H   H74       1.0  0.40282  0.16230  0.39410  1.0000
  H   H75       1.0  0.27261  0.10034  0.33741  1.0000
  H   H76       1.0  0.32089  0.12654  0.33745  1.0000
  H   H77       1.0  0.49166  0.11363  0.34016  1.0000
  H   H78       1.0  0.45569  0.12389  0.33330  1.0000
  H   H79       1.0  0.35958  0.16600  0.43081  1.0000
  H   H80       1.0  0.45084  0.27676  0.43581  1.0000
  H   H81       1.0  0.46833  0.19356  0.45936  1.0000
  C   C114      1.0  0.63172  0.13884  0.36158  1.0000
  C   C115      1.0  0.65924  0.14667  0.35296  1.0000
  C   C116      1.0  0.72015  0.18211  0.37867  1.0000
  C   C117      1.0  0.74808  0.19730  0.37856  1.0000
  C   C118      1.0  0.76072  0.22565  0.38773  1.0000
  C   C119      1.0  0.78913  0.24177  0.39239  1.0000
  C   C120      1.0  0.80498  0.22917  0.38874  1.0000
  C   C121      1.0  0.79273  0.20077  0.37982  1.0000
  C   C122      1.0  0.76417  0.18498  0.37574  1.0000
  C   C123      1.0  0.80870  0.18879  0.38104  1.0000
  C   C124      1.0  0.82318  0.15900  0.32044  1.0000
  C   C125      1.0  0.85159  0.17405  0.33072  1.0000
  C   C126      1.0  0.86703  0.16109  0.33064  1.0000
  C   C127      1.0  0.80039  0.26931  0.40531  1.0000
  C   C128      1.0  0.82171  0.31466  0.34984  1.0000
  C   C129      1.0  0.84868  0.33605  0.34226  1.0000
  C   C130      1.0  0.85473  0.36318  0.34624  1.0000
  H   H82       1.0  0.61900  0.12135  0.39471  1.0000
  H   H83       1.0  0.66585  0.13450  0.37954  1.0000
  H   H84       1.0  0.75501  0.16434  0.37197  1.0000
  H   H85       1.0  0.74904  0.23462  0.39190  1.0000
  H   H86       1.0  0.82559  0.24077  0.39386  1.0000
  H   H87       1.0  0.88756  0.17259  0.33731  1.0000
  H   H88       1.0  0.86132  0.19463  0.33748  1.0000
  H   H89       1.0  0.87441  0.37833  0.34078  1.0000
  H   H90       1.0  0.86413  0.33207  0.33386  1.0000
  H   H91       1.0  0.82190  0.19384  0.43083  1.0000
  H   H92       1.0  0.71121  0.17474  0.43707  1.0000
  H   H93       1.0  0.79444  0.27512  0.45926  1.0000
  C   C131      1.0  0.84903  0.49317  0.36145  1.0000
  C   C132      1.0  0.84114  0.51281  0.35275  1.0000
  C   C133      1.0  0.80564  0.53822  0.37838  1.0000
  C   C134      1.0  0.79050  0.55102  0.37828  1.0000
  C   C135      1.0  0.76216  0.53536  0.38736  1.0000
  C   C136      1.0  0.74608  0.54769  0.39207  1.0000
  C   C137      1.0  0.75873  0.57616  0.38858  1.0000
  C   C138      1.0  0.78713  0.59226  0.37976  1.0000
  C   C139      1.0  0.80287  0.57945  0.37568  1.0000
  C   C140      1.0  0.79916  0.62023  0.38113  1.0000
  C   C141      1.0  0.82901  0.66452  0.32069  1.0000
  C   C142      1.0  0.81398  0.67790  0.33089  1.0000
  C   C143      1.0  0.82697  0.70631  0.33090  1.0000
  C   C144      1.0  0.71854  0.53145  0.40502  1.0000
  C   C145      1.0  0.67324  0.50739  0.34943  1.0000
  C   C146      1.0  0.65183  0.51296  0.34218  1.0000
  C   C147      1.0  0.62472  0.49186  0.34627  1.0000
  H   H94       1.0  0.86651  0.49798  0.39469  1.0000
  H   H95       1.0  0.85324  0.53159  0.37944  1.0000
  H   H96       1.0  0.82351  0.59090  0.37197  1.0000
  H   H97       1.0  0.75315  0.51470  0.39142  1.0000
  H   H98       1.0  0.74716  0.58520  0.39377  1.0000
  H   H99       1.0  0.81549  0.71537  0.33744  1.0000
  H   H100      1.0  0.79341  0.66708  0.33759  1.0000
  H   H101      1.0  0.60956  0.49638  0.34110  1.0000
  H   H102      1.0  0.65580  0.53240  0.33400  1.0000
  H   H103      1.0  0.79411  0.62838  0.43092  1.0000
  H   H104      1.0  0.81324  0.53690  0.43661  1.0000
  H   H105      1.0  0.71275  0.51966  0.45890  1.0000
  C   C148      1.0  0.19498  0.08550  0.39363  1.0000
  C   C149      1.0  0.22335  0.10077  0.39154  1.0000
  H   H106      1.0  0.23391  0.09971  0.44507  1.0000
  H   H107      1.0  0.18582  0.07382  0.44858  1.0000
  C   C150      1.0  0.23752  0.13567  0.61957  1.0000
  H   H108      1.0  0.21827  0.11911  0.59551  1.0000
  H   H109      1.0  0.25009  0.12748  0.64289  1.0000
  H   H110      1.0  0.24769  0.14919  0.56351  1.0000
  C   C151      1.0  0.90249  0.10984  0.39342  1.0000
  C   C152      1.0  0.88719  0.12291  0.39133  1.0000
  H   H111      1.0  0.88824  0.13452  0.44486  1.0000
  H   H112      1.0  0.91417  0.11237  0.44837  1.0000
  C   C153      1.0  0.85231  0.10227  0.61955  1.0000
  H   H113      1.0  0.86896  0.09973  0.59548  1.0000
  H   H114      1.0  0.86038  0.12300  0.64310  1.0000
  H   H115      1.0  0.83881  0.09890  0.56343  1.0000
  C   C154      1.0  0.87827  0.79305  0.39345  1.0000
  C   C155      1.0  0.86519  0.76467  0.39148  1.0000
  H   H116      1.0  0.85358  0.75413  0.44504  1.0000
  H   H117      1.0  0.87574  0.80223  0.44833  1.0000
  C   C156      1.0  0.88605  0.75062  0.61909  1.0000
  H   H118      1.0  0.88899  0.76995  0.59500  1.0000
  H   H119      1.0  0.86521  0.73818  0.64194  1.0000
  H   H120      1.0  0.88938  0.74038  0.56315  1.0000
  C   C157      1.0  0.54512  0.14894  0.35954  1.0000
  C   C158      1.0  0.56356  0.15742  0.43188  1.0000
  C   C159      1.0  0.58846  0.15767  0.42390  1.0000
  C   C160      1.0  0.59518  0.14958  0.34312  1.0000
  N   N10       1.0  0.60593  0.16716  0.49409  1.0000
  C   C161      1.0  0.60054  0.17584  0.57143  1.0000
  C   C162      1.0  0.57582  0.17540  0.58016  1.0000
  N   N11       1.0  0.55852  0.16640  0.50971  1.0000
  H   H121      1.0  0.61442  0.18273  0.62186  1.0000
  N   N12       1.0  0.56980  0.18473  0.65907  1.0000
  H   H122      1.0  0.56656  0.20035  0.64306  1.0000
  C   C163      1.0  0.83910  0.39649  0.35963  1.0000
  C   C164      1.0  0.83061  0.40645  0.43194  1.0000
  C   C165      1.0  0.83033  0.43109  0.42388  1.0000
  C   C166      1.0  0.83841  0.44590  0.34312  1.0000
  N   N13       1.0  0.82083  0.43908  0.49407  1.0000
  C   C167      1.0  0.81215  0.42500  0.57142  1.0000
  C   C168      1.0  0.81261  0.40073  0.58018  1.0000
  N   N14       1.0  0.82162  0.39242  0.50975  1.0000
  H   H123      1.0  0.80527  0.43200  0.62184  1.0000
  N   N15       1.0  0.80328  0.38536  0.65910  1.0000
  H   H124      1.0  0.78767  0.36651  0.64308  1.0000
  C   C169      1.0  0.59146  0.44288  0.35966  1.0000
  C   C170      1.0  0.58164  0.42447  0.43207  1.0000
  C   C171      1.0  0.55706  0.39948  0.42424  1.0000
  C   C172      1.0  0.54215  0.39272  0.34368  1.0000
  N   N16       1.0  0.54920  0.38201  0.49443  1.0000
  C   C173      1.0  0.56336  0.38748  0.57163  1.0000
  C   C174      1.0  0.58756  0.41227  0.58023  1.0000
  N   N17       1.0  0.59574  0.42957  0.50976  1.0000
  H   H125      1.0  0.55644  0.37360  0.62208  1.0000
  N   N18       1.0  0.60298  0.41838  0.65904  1.0000
  H   H126      1.0  0.62187  0.42177  0.64288  1.0000
