data_image0
_chemical_formula_structural       CHC2OCH2CHC2OCH5CNHCNHNC6H3C6H3C3NOCH3C3NOCH3CNCNHCNHNC6H3C6H3C3NOCH3C3NOCH2CNCNHCNHCNHC6H3C6H3C3NOCH3C3NOCH3C3NOCH3CNHCNHCNHC6H3C6H3C3NOCH3C3NOCH3C3NOCH3
_chemical_formula_sum              "C108 H72 O12 N24"
_cell_length_a       29.5309
_cell_length_b       29.5309
_cell_length_c       14.9106
_cell_angle_alpha    90
_cell_angle_beta     90
_cell_angle_gamma    120

_space_group_name_H-M_alt    "P 1"
_space_group_IT_number       1

loop_
  _space_group_symop_operation_xyz
  'x, y, z'

loop_
  _atom_site_type_symbol
  _atom_site_label
  _atom_site_symmetry_multiplicity
  _atom_site_fract_x
  _atom_site_fract_y
  _atom_site_fract_z
  _atom_site_occupancy
  C   C1        1.0  0.03623  0.22297  0.31246  1.0000
  H   H1        1.0  0.05391  0.20344  0.28803  1.0000
  C   C2        1.0  0.03448  0.29708  0.37286  1.0000
  C   C3        1.0  0.06553  0.27544  0.34339  1.0000
  O   O1        1.0  0.05310  0.34210  0.42193  1.0000
  C   C4        1.0  0.05201  0.33294  0.51708  1.0000
  H   H2        1.0  0.06288  0.36938  0.55178  1.0000
  H   H3        1.0  0.08001  0.32053  0.53535  1.0000
  C   C5        1.0  0.03117  0.72602  0.31759  1.0000
  H   H4        1.0  0.04960  0.70835  0.28841  1.0000
  C   C6        1.0  0.02820  0.79638  0.39184  1.0000
  C   C7        1.0  0.05958  0.77630  0.35733  1.0000
  O   O2        1.0  0.04702  0.83919  0.44672  1.0000
  C   C8        1.0  0.04659  0.82585  0.53987  1.0000
  H   H5        1.0  0.05899  0.86086  0.58003  1.0000
  H   H6        1.0  0.07377  0.81154  0.55231  1.0000
  H   H7        1.0  0.01305  0.30383  0.54050  1.0000
  H   H8        1.0  0.00749  0.79661  0.56242  1.0000
  H   H9        1.0  0.19419  0.00032  0.55335  1.0000
  C   C9        1.0  0.28756  0.30053  0.33294  1.0000
  N   N1        1.0  0.31294  0.27302  0.33344  1.0000
  H   H10       1.0  0.30638  0.33612  0.30216  1.0000
  C   C10       1.0  0.28304  0.47400  0.30136  1.0000
  N   N2        1.0  0.30796  0.02518  0.32629  1.0000
  H   H11       1.0  0.30243  0.45628  0.27627  1.0000
  N   N3        1.0  0.48323  0.19733  0.30861  1.0000
  C   C11       1.0  0.12139  0.30373  0.34666  1.0000
  C   C12       1.0  0.14996  0.35901  0.34176  1.0000
  C   C13       1.0  0.20522  0.38896  0.34421  1.0000
  C   C14       1.0  0.23228  0.36084  0.35131  1.0000
  C   C15       1.0  0.20677  0.30553  0.35700  1.0000
  C   C16       1.0  0.15138  0.27851  0.35229  1.0000
  H   H12       1.0  0.27173  0.38175  0.36094  1.0000
  H   H13       1.0  0.13206  0.23883  0.35192  1.0000
  H   H14       1.0  0.13010  0.37788  0.32543  1.0000
  C   C17       1.0  0.39957  0.19292  0.33419  1.0000
  C   C18       1.0  0.36997  0.13768  0.33065  1.0000
  C   C19       1.0  0.31560  0.11010  0.34914  1.0000
  C   C20       1.0  0.29071  0.13967  0.36619  1.0000
  C   C21       1.0  0.31765  0.19480  0.35927  1.0000
  C   C22       1.0  0.37218  0.22051  0.34477  1.0000
  H   H15       1.0  0.25117  0.12050  0.37664  1.0000
  H   H16       1.0  0.39265  0.26054  0.34378  1.0000
  H   H17       1.0  0.38916  0.11713  0.32273  1.0000
  C   C23       1.0  0.21455  0.22743  0.40215  1.0000
  C   C24       1.0  0.23536  0.27840  0.36448  1.0000
  C   C25       1.0  0.29103  0.22333  0.36482  1.0000
  N   N4        1.0  0.24206  0.20195  0.39911  1.0000
  O   O3        1.0  0.16896  0.20234  0.44993  1.0000
  C   C26       1.0  0.17530  0.21788  0.54269  1.0000
  H   H18       1.0  0.20260  0.20889  0.57691  1.0000
  H   H19       1.0  0.13738  0.19605  0.57550  1.0000
  H   H20       1.0  0.18872  0.25957  0.54976  1.0000
  C   C27       1.0  0.20986  0.47503  0.36815  1.0000
  C   C28       1.0  0.23194  0.44460  0.33782  1.0000
  C   C29       1.0  0.28702  0.05480  0.35230  1.0000
  N   N5        1.0  0.23735  0.02879  0.38391  1.0000
  O   O4        1.0  0.16707  0.45622  0.42315  1.0000
  C   C30       1.0  0.18078  0.45892  0.51665  1.0000
  H   H21       1.0  0.19529  0.43219  0.53177  1.0000
  H   H22       1.0  0.14590  0.44739  0.55670  1.0000
  H   H23       1.0  0.21000  0.49854  0.53698  1.0000
  C   C31       1.0  0.45483  0.21999  0.33281  1.0000
  N   N6        1.0  0.48178  0.26937  0.36542  1.0000
  C   C32       1.0  0.20367  0.72212  0.33924  1.0000
  N   N7        1.0  0.23114  0.69676  0.33507  1.0000
  H   H24       1.0  0.16772  0.70380  0.30965  1.0000
  C   C33       1.0  0.28126  0.97226  0.33000  1.0000
  N   N8        1.0  0.30735  0.52685  0.29462  1.0000
  H   H25       1.0  0.29999  0.95411  0.30421  1.0000
  N   N9        1.0  0.47835  0.70073  0.31152  1.0000
  C   C34       1.0  0.11525  0.80376  0.36261  1.0000
  C   C35       1.0  0.14484  0.85908  0.36175  1.0000
  C   C36       1.0  0.20022  0.88787  0.36486  1.0000
  C   C37       1.0  0.22555  0.85781  0.36846  1.0000
  C   C38       1.0  0.19891  0.80240  0.37080  1.0000
  C   C39       1.0  0.14362  0.77686  0.36669  1.0000
  H   H26       1.0  0.26519  0.87707  0.36786  1.0000
  H   H27       1.0  0.12298  0.73732  0.37559  1.0000
  H   H28       1.0  0.12550  0.87870  0.34743  1.0000
  C   C40       1.0  0.39400  0.69351  0.33826  1.0000
  C   C41       1.0  0.36617  0.63968  0.31584  1.0000
  C   C42       1.0  0.31102  0.61002  0.32142  1.0000
  C   C43       1.0  0.28359  0.63725  0.33626  1.0000
  C   C44       1.0  0.30956  0.69153  0.35385  1.0000
  C   C45       1.0  0.36474  0.71818  0.35972  1.0000
  H   H29       1.0  0.24357  0.61670  0.33696  1.0000
  H   H30       1.0  0.38419  0.75743  0.37301  1.0000
  H   H31       1.0  0.38657  0.62054  0.30536  1.0000
  C   C46       1.0  0.27764  0.79396  0.40884  1.0000
  C   C47       1.0  0.22616  0.77376  0.37376  1.0000
  C   C48       1.0  0.28120  0.71811  0.36427  1.0000
  N   N10       1.0  0.30303  0.76651  0.40116  1.0000
  O   O5        1.0  0.30344  0.83884  0.45831  1.0000
  C   C49       1.0  0.28910  0.83120  0.55166  1.0000
  H   H32       1.0  0.24753  0.81778  0.56092  1.0000
  H   H33       1.0  0.31143  0.86863  0.58581  1.0000
  H   H34       1.0  0.29841  0.80336  0.58292  1.0000
  C   C50       1.0  0.20828  0.97599  0.39047  1.0000
  C   C51       1.0  0.22886  0.94382  0.36170  1.0000
  C   C52       1.0  0.28442  0.55476  0.32050  1.0000
  N   N11       1.0  0.23624  0.52762  0.35790  1.0000
  O   O6        1.0  0.16159  0.95817  0.43390  1.0000
  C   C53       1.0  0.16672  0.96081  0.53005  1.0000
  H   H35       1.0  0.17904  0.93374  0.55457  1.0000
  H   H36       1.0  0.12866  0.94960  0.55880  1.0000
  C   C54       1.0  0.44925  0.72127  0.34266  1.0000
  N   N12       1.0  0.47546  0.76879  0.38284  1.0000
  C   C55       1.0  0.78756  0.30053  0.33294  1.0000
  N   N13       1.0  0.81294  0.27302  0.33344  1.0000
  H   H37       1.0  0.80638  0.33612  0.30216  1.0000
  C   C56       1.0  0.78304  0.47400  0.30136  1.0000
  N   N14       1.0  0.80796  0.02518  0.32629  1.0000
  H   H38       1.0  0.80243  0.45628  0.27627  1.0000
  C   C57       1.0  0.53623  0.22297  0.31246  1.0000
  N   N15       1.0  0.98323  0.19733  0.30861  1.0000
  H   H39       1.0  0.55391  0.20344  0.28803  1.0000
  C   C58       1.0  0.62138  0.30373  0.34666  1.0000
  C   C59       1.0  0.64996  0.35901  0.34176  1.0000
  C   C60       1.0  0.70522  0.38896  0.34421  1.0000
  C   C61       1.0  0.73228  0.36084  0.35131  1.0000
  C   C62       1.0  0.70677  0.30553  0.35700  1.0000
  C   C63       1.0  0.65138  0.27851  0.35229  1.0000
  H   H40       1.0  0.77173  0.38175  0.36094  1.0000
  H   H41       1.0  0.63206  0.23883  0.35192  1.0000
  H   H42       1.0  0.63011  0.37788  0.32543  1.0000
  C   C64       1.0  0.89957  0.19292  0.33419  1.0000
  C   C65       1.0  0.86997  0.13768  0.33065  1.0000
  C   C66       1.0  0.81560  0.11010  0.34914  1.0000
  C   C67       1.0  0.79071  0.13967  0.36619  1.0000
  C   C68       1.0  0.81765  0.19480  0.35927  1.0000
  C   C69       1.0  0.87218  0.22051  0.34477  1.0000
  H   H43       1.0  0.75116  0.12050  0.37664  1.0000
  H   H44       1.0  0.89265  0.26054  0.34378  1.0000
  H   H45       1.0  0.88916  0.11713  0.32273  1.0000
  C   C70       1.0  0.71455  0.22743  0.40215  1.0000
  C   C71       1.0  0.73536  0.27840  0.36448  1.0000
  C   C72       1.0  0.79103  0.22333  0.36482  1.0000
  N   N16       1.0  0.74206  0.20195  0.39911  1.0000
  O   O7        1.0  0.66896  0.20234  0.44993  1.0000
  C   C73       1.0  0.67530  0.21788  0.54269  1.0000
  H   H46       1.0  0.70260  0.20889  0.57691  1.0000
  H   H47       1.0  0.63738  0.19605  0.57550  1.0000
  H   H48       1.0  0.68872  0.25957  0.54976  1.0000
  C   C74       1.0  0.70986  0.47503  0.36815  1.0000
  C   C75       1.0  0.73194  0.44460  0.33782  1.0000
  C   C76       1.0  0.78703  0.05480  0.35230  1.0000
  N   N17       1.0  0.73734  0.02879  0.38391  1.0000
  O   O8        1.0  0.66707  0.45622  0.42315  1.0000
  C   C77       1.0  0.68078  0.45892  0.51665  1.0000
  H   H49       1.0  0.69529  0.43219  0.53177  1.0000
  H   H50       1.0  0.64590  0.44739  0.55670  1.0000
  H   H51       1.0  0.71000  0.49854  0.53698  1.0000
  C   C78       1.0  0.53448  0.29708  0.37286  1.0000
  C   C79       1.0  0.56553  0.27544  0.34339  1.0000
  C   C80       1.0  0.95483  0.21999  0.33281  1.0000
  N   N18       1.0  0.98178  0.26937  0.36542  1.0000
  O   O9        1.0  0.55310  0.34210  0.42193  1.0000
  C   C81       1.0  0.55201  0.33294  0.51708  1.0000
  H   H52       1.0  0.51305  0.30383  0.54050  1.0000
  H   H53       1.0  0.56288  0.36938  0.55178  1.0000
  H   H54       1.0  0.58001  0.32053  0.53535  1.0000
  C   C82       1.0  0.70366  0.72212  0.33924  1.0000
  N   N19       1.0  0.73114  0.69676  0.33507  1.0000
  H   H55       1.0  0.66771  0.70380  0.30965  1.0000
  C   C83       1.0  0.78126  0.97226  0.33000  1.0000
  N   N20       1.0  0.80735  0.52685  0.29462  1.0000
  H   H56       1.0  0.79999  0.95411  0.30421  1.0000
  C   C84       1.0  0.53116  0.72602  0.31759  1.0000
  N   N21       1.0  0.97835  0.70073  0.31152  1.0000
  H   H57       1.0  0.54960  0.70835  0.28841  1.0000
  C   C85       1.0  0.61525  0.80376  0.36261  1.0000
  C   C86       1.0  0.64484  0.85908  0.36175  1.0000
  C   C87       1.0  0.70022  0.88787  0.36486  1.0000
  C   C88       1.0  0.72555  0.85781  0.36846  1.0000
  C   C89       1.0  0.69891  0.80240  0.37080  1.0000
  C   C90       1.0  0.64362  0.77686  0.36669  1.0000
  H   H58       1.0  0.76519  0.87707  0.36786  1.0000
  H   H59       1.0  0.62297  0.73732  0.37559  1.0000
  H   H60       1.0  0.62550  0.87870  0.34743  1.0000
  C   C91       1.0  0.89400  0.69351  0.33826  1.0000
  C   C92       1.0  0.86617  0.63968  0.31584  1.0000
  C   C93       1.0  0.81102  0.61002  0.32142  1.0000
  C   C94       1.0  0.78359  0.63725  0.33626  1.0000
  C   C95       1.0  0.80956  0.69153  0.35385  1.0000
  C   C96       1.0  0.86474  0.71818  0.35972  1.0000
  H   H61       1.0  0.74356  0.61670  0.33696  1.0000
  H   H62       1.0  0.88419  0.75743  0.37301  1.0000
  H   H63       1.0  0.88657  0.62054  0.30536  1.0000
  C   C97       1.0  0.77764  0.79396  0.40884  1.0000
  C   C98       1.0  0.72616  0.77376  0.37376  1.0000
  C   C99       1.0  0.78120  0.71811  0.36427  1.0000
  N   N22       1.0  0.80303  0.76651  0.40116  1.0000
  O   O10       1.0  0.80344  0.83884  0.45831  1.0000
  C   C100      1.0  0.78909  0.83120  0.55166  1.0000
  H   H64       1.0  0.74753  0.81778  0.56092  1.0000
  H   H65       1.0  0.81143  0.86863  0.58581  1.0000
  H   H66       1.0  0.79841  0.80336  0.58292  1.0000
  C   C101      1.0  0.70828  0.97599  0.39047  1.0000
  C   C102      1.0  0.72886  0.94382  0.36170  1.0000
  C   C103      1.0  0.78442  0.55476  0.32050  1.0000
  N   N23       1.0  0.73624  0.52762  0.35790  1.0000
  O   O11       1.0  0.66159  0.95817  0.43390  1.0000
  C   C104      1.0  0.66671  0.96081  0.53005  1.0000
  H   H67       1.0  0.67904  0.93374  0.55457  1.0000
  H   H68       1.0  0.62866  0.94960  0.55880  1.0000
  H   H69       1.0  0.69419  0.00032  0.55335  1.0000
  C   C105      1.0  0.52820  0.79638  0.39184  1.0000
  C   C106      1.0  0.55958  0.77630  0.35733  1.0000
  C   C107      1.0  0.94925  0.72127  0.34266  1.0000
  N   N24       1.0  0.97546  0.76879  0.38284  1.0000
  O   O12       1.0  0.54702  0.83919  0.44672  1.0000
  C   C108      1.0  0.54659  0.82585  0.53987  1.0000
  H   H70       1.0  0.50749  0.79661  0.56242  1.0000
  H   H71       1.0  0.55899  0.86086  0.58003  1.0000
  H   H72       1.0  0.57376  0.81154  0.55231  1.0000
