data_image0
_chemical_formula_structural       C2HCNC2HCNC3H2C3H2C8H2C4H2C2HCHC6H3C2NOCHC2NOCHCOCHC4H2C4H2C2HCHC6H3C2NOCHC2NOCHCOCHC4H2C4H2C4H2C6H3C6H3C2NOCHC2NOCHC2NOCHC4H2C4H2C4H2C6H3C6H3C2NOCHC2NOCHC2NOCH
_chemical_formula_sum              "C132 H60 N12 O12"
_cell_length_a       29.5843
_cell_length_b       29.5842
_cell_length_c       14.7823
_cell_angle_alpha    90
_cell_angle_beta     90
_cell_angle_gamma    120

_space_group_name_H-M_alt    "P 1"
_space_group_IT_number       1

loop_
  _space_group_symop_operation_xyz
  'x, y, z'

loop_
  _atom_site_type_symbol
  _atom_site_label
  _atom_site_symmetry_multiplicity
  _atom_site_fract_x
  _atom_site_fract_y
  _atom_site_fract_z
  _atom_site_occupancy
  C   C1        1.0  0.06715  0.28542  0.34622  1.0000
  C   C2        1.0  0.03857  0.27113  0.26422  1.0000
  H   H1        1.0  0.05782  0.28076  0.20356  1.0000
  C   C3        1.0  0.03816  0.27093  0.42738  1.0000
  N   N1        1.0  0.05384  0.27876  0.51324  1.0000
  C   C4        1.0  0.06715  0.78542  0.34622  1.0000
  C   C5        1.0  0.03856  0.77113  0.26422  1.0000
  H   H2        1.0  0.05782  0.78075  0.20356  1.0000
  C   C6        1.0  0.03816  0.77093  0.42738  1.0000
  N   N2        1.0  0.05384  0.77876  0.51324  1.0000
  C   C7        1.0  0.12221  0.31295  0.34691  1.0000
  C   C8        1.0  0.15025  0.36817  0.34691  1.0000
  C   C9        1.0  0.15024  0.28576  0.34692  1.0000
  H   H3        1.0  0.13023  0.24575  0.34674  1.0000
  H   H4        1.0  0.13025  0.38818  0.34673  1.0000
  C   C10       1.0  0.12221  0.81295  0.34691  1.0000
  C   C11       1.0  0.15025  0.86817  0.34691  1.0000
  C   C12       1.0  0.15024  0.78576  0.34692  1.0000
  H   H5        1.0  0.13023  0.74574  0.34674  1.0000
  H   H6        1.0  0.13024  0.88818  0.34673  1.0000
  C   C13       1.0  0.20547  0.39620  0.34691  1.0000
  C   C14       1.0  0.20546  0.31294  0.34691  1.0000
  C   C15       1.0  0.20547  0.89620  0.34691  1.0000
  C   C16       1.0  0.20546  0.81294  0.34691  1.0000
  C   C17       1.0  0.28911  0.22932  0.34665  1.0000
  C   C18       1.0  0.23298  0.28541  0.34622  1.0000
  C   C19       1.0  0.24728  0.27112  0.26422  1.0000
  C   C20       1.0  0.27491  0.24351  0.26442  1.0000
  H   H7        1.0  0.28461  0.23381  0.20388  1.0000
  H   H8        1.0  0.23765  0.28075  0.20355  1.0000
  C   C21       1.0  0.28909  0.06347  0.34665  1.0000
  C   C22       1.0  0.23300  0.45126  0.34622  1.0000
  C   C23       1.0  0.24729  0.47985  0.26422  1.0000
  C   C24       1.0  0.27490  0.03508  0.26441  1.0000
  H   H9        1.0  0.28460  0.05448  0.20388  1.0000
  H   H10       1.0  0.23766  0.46059  0.20355  1.0000
  C   C25       1.0  0.45494  0.22930  0.34665  1.0000
  C   C26       1.0  0.48333  0.24350  0.26442  1.0000
  H   H11       1.0  0.46393  0.23380  0.20388  1.0000
  C   C27       1.0  0.23265  0.36816  0.34691  1.0000
  H   H12       1.0  0.27266  0.38816  0.34673  1.0000
  C   C28       1.0  0.39989  0.20178  0.34751  1.0000
  C   C29       1.0  0.37184  0.14656  0.34750  1.0000
  C   C30       1.0  0.31662  0.11852  0.34750  1.0000
  C   C31       1.0  0.28944  0.14657  0.34752  1.0000
  C   C32       1.0  0.31663  0.20179  0.34751  1.0000
  C   C33       1.0  0.37185  0.22897  0.34752  1.0000
  H   H13       1.0  0.24943  0.12656  0.34727  1.0000
  H   H14       1.0  0.39186  0.26898  0.34727  1.0000
  H   H15       1.0  0.39184  0.12655  0.34727  1.0000
  C   C34       1.0  0.27473  0.24369  0.42813  1.0000
  C   C35       1.0  0.24748  0.27092  0.42738  1.0000
  N   N3        1.0  0.23964  0.27875  0.51324  1.0000
  O   O1        1.0  0.28435  0.23408  0.51402  1.0000
  C   C36       1.0  0.26161  0.25679  0.56272  1.0000
  H   H16       1.0  0.26139  0.25702  0.63179  1.0000
  C   C37       1.0  0.27472  0.03472  0.42813  1.0000
  C   C38       1.0  0.24749  0.48025  0.42737  1.0000
  N   N4        1.0  0.23966  0.46457  0.51324  1.0000
  O   O2        1.0  0.28433  0.05395  0.51402  1.0000
  C   C39       1.0  0.26162  0.00850  0.56272  1.0000
  H   H17       1.0  0.26139  0.00805  0.63179  1.0000
  C   C40       1.0  0.48369  0.24368  0.42813  1.0000
  O   O3        1.0  0.46446  0.23407  0.51402  1.0000
  C   C41       1.0  0.50991  0.25679  0.56272  1.0000
  H   H18       1.0  0.51036  0.25702  0.63179  1.0000
  C   C42       1.0  0.28911  0.72932  0.34665  1.0000
  C   C43       1.0  0.23298  0.78540  0.34622  1.0000
  C   C44       1.0  0.24728  0.77112  0.26422  1.0000
  C   C45       1.0  0.27491  0.74351  0.26442  1.0000
  H   H19       1.0  0.28461  0.73381  0.20388  1.0000
  H   H20       1.0  0.23765  0.78075  0.20355  1.0000
  C   C46       1.0  0.28909  0.56347  0.34665  1.0000
  C   C47       1.0  0.23300  0.95126  0.34622  1.0000
  C   C48       1.0  0.24729  0.97984  0.26422  1.0000
  C   C49       1.0  0.27490  0.53508  0.26441  1.0000
  H   H21       1.0  0.28460  0.55448  0.20388  1.0000
  H   H22       1.0  0.23766  0.96059  0.20355  1.0000
  C   C50       1.0  0.45494  0.72930  0.34665  1.0000
  C   C51       1.0  0.48333  0.74350  0.26442  1.0000
  H   H23       1.0  0.46393  0.73380  0.20388  1.0000
  C   C52       1.0  0.23265  0.86816  0.34691  1.0000
  H   H24       1.0  0.27266  0.88816  0.34673  1.0000
  C   C53       1.0  0.39989  0.70178  0.34751  1.0000
  C   C54       1.0  0.37184  0.64656  0.34750  1.0000
  C   C55       1.0  0.31662  0.61852  0.34750  1.0000
  C   C56       1.0  0.28944  0.64657  0.34752  1.0000
  C   C57       1.0  0.31663  0.70179  0.34751  1.0000
  C   C58       1.0  0.37185  0.72897  0.34752  1.0000
  H   H25       1.0  0.24943  0.62656  0.34727  1.0000
  H   H26       1.0  0.39186  0.76898  0.34727  1.0000
  H   H27       1.0  0.39184  0.62655  0.34727  1.0000
  C   C59       1.0  0.27473  0.74369  0.42813  1.0000
  C   C60       1.0  0.24748  0.77092  0.42738  1.0000
  N   N5        1.0  0.23964  0.77875  0.51324  1.0000
  O   O4        1.0  0.28435  0.73408  0.51402  1.0000
  C   C61       1.0  0.26161  0.75679  0.56272  1.0000
  H   H28       1.0  0.26139  0.75702  0.63179  1.0000
  C   C62       1.0  0.27472  0.53472  0.42813  1.0000
  C   C63       1.0  0.24749  0.98025  0.42737  1.0000
  N   N6        1.0  0.23966  0.96457  0.51324  1.0000
  O   O5        1.0  0.28433  0.55395  0.51402  1.0000
  C   C64       1.0  0.26161  0.50850  0.56272  1.0000
  H   H29       1.0  0.26139  0.50805  0.63179  1.0000
  C   C65       1.0  0.48369  0.74368  0.42813  1.0000
  O   O6        1.0  0.46446  0.73407  0.51402  1.0000
  C   C66       1.0  0.50991  0.75679  0.56272  1.0000
  H   H30       1.0  0.51036  0.75702  0.63179  1.0000
  C   C67       1.0  0.78911  0.22932  0.34665  1.0000
  C   C68       1.0  0.73298  0.28541  0.34622  1.0000
  C   C69       1.0  0.74728  0.27112  0.26422  1.0000
  C   C70       1.0  0.77491  0.24351  0.26442  1.0000
  H   H31       1.0  0.78461  0.23381  0.20388  1.0000
  H   H32       1.0  0.73765  0.28075  0.20355  1.0000
  C   C71       1.0  0.78909  0.06347  0.34665  1.0000
  C   C72       1.0  0.73300  0.45126  0.34622  1.0000
  C   C73       1.0  0.74729  0.47985  0.26422  1.0000
  C   C74       1.0  0.77490  0.03508  0.26441  1.0000
  H   H33       1.0  0.78460  0.05448  0.20388  1.0000
  H   H34       1.0  0.73766  0.46059  0.20355  1.0000
  C   C75       1.0  0.95493  0.22930  0.34665  1.0000
  C   C76       1.0  0.56715  0.28542  0.34622  1.0000
  C   C77       1.0  0.53856  0.27113  0.26422  1.0000
  C   C78       1.0  0.98333  0.24350  0.26442  1.0000
  H   H35       1.0  0.96393  0.23380  0.20388  1.0000
  H   H36       1.0  0.55782  0.28076  0.20356  1.0000
  C   C79       1.0  0.62221  0.31295  0.34691  1.0000
  C   C80       1.0  0.65025  0.36817  0.34691  1.0000
  C   C81       1.0  0.70547  0.39620  0.34691  1.0000
  C   C82       1.0  0.73265  0.36816  0.34691  1.0000
  C   C83       1.0  0.70546  0.31294  0.34691  1.0000
  C   C84       1.0  0.65024  0.28576  0.34692  1.0000
  H   H37       1.0  0.77267  0.38816  0.34673  1.0000
  H   H38       1.0  0.63023  0.24575  0.34674  1.0000
  H   H39       1.0  0.63025  0.38818  0.34673  1.0000
  C   C85       1.0  0.89989  0.20178  0.34751  1.0000
  C   C86       1.0  0.87184  0.14656  0.34750  1.0000
  C   C87       1.0  0.81662  0.11852  0.34750  1.0000
  C   C88       1.0  0.78944  0.14657  0.34752  1.0000
  C   C89       1.0  0.81663  0.20179  0.34751  1.0000
  C   C90       1.0  0.87185  0.22897  0.34752  1.0000
  H   H40       1.0  0.74943  0.12656  0.34727  1.0000
  H   H41       1.0  0.89186  0.26898  0.34727  1.0000
  H   H42       1.0  0.89184  0.12655  0.34727  1.0000
  C   C91       1.0  0.77473  0.24369  0.42813  1.0000
  C   C92       1.0  0.74748  0.27092  0.42738  1.0000
  N   N7        1.0  0.73964  0.27875  0.51324  1.0000
  O   O7        1.0  0.78434  0.23408  0.51402  1.0000
  C   C93       1.0  0.76161  0.25679  0.56272  1.0000
  H   H43       1.0  0.76139  0.25702  0.63179  1.0000
  C   C94       1.0  0.77472  0.03472  0.42813  1.0000
  C   C95       1.0  0.74749  0.48025  0.42737  1.0000
  N   N8        1.0  0.73966  0.46457  0.51324  1.0000
  O   O8        1.0  0.78433  0.05395  0.51402  1.0000
  C   C96       1.0  0.76162  0.00850  0.56272  1.0000
  H   H44       1.0  0.76139  0.00805  0.63179  1.0000
  C   C97       1.0  0.98369  0.24368  0.42813  1.0000
  C   C98       1.0  0.53816  0.27093  0.42738  1.0000
  N   N9        1.0  0.55383  0.27876  0.51324  1.0000
  O   O9        1.0  0.96446  0.23407  0.51402  1.0000
  C   C99       1.0  0.00991  0.25679  0.56272  1.0000
  H   H45       1.0  0.01036  0.25702  0.63179  1.0000
  C   C100      1.0  0.78911  0.72932  0.34665  1.0000
  C   C101      1.0  0.73298  0.78540  0.34622  1.0000
  C   C102      1.0  0.74728  0.77112  0.26422  1.0000
  C   C103      1.0  0.77491  0.74351  0.26442  1.0000
  H   H46       1.0  0.78461  0.73381  0.20388  1.0000
  H   H47       1.0  0.73765  0.78075  0.20355  1.0000
  C   C104      1.0  0.78909  0.56347  0.34665  1.0000
  C   C105      1.0  0.73300  0.95126  0.34622  1.0000
  C   C106      1.0  0.74729  0.97984  0.26422  1.0000
  C   C107      1.0  0.77490  0.53508  0.26441  1.0000
  H   H48       1.0  0.78459  0.55448  0.20388  1.0000
  H   H49       1.0  0.73766  0.96059  0.20355  1.0000
  C   C108      1.0  0.95494  0.72930  0.34665  1.0000
  C   C109      1.0  0.56715  0.78542  0.34622  1.0000
  C   C110      1.0  0.53856  0.77113  0.26422  1.0000
  C   C111      1.0  0.98333  0.74350  0.26442  1.0000
  H   H50       1.0  0.96393  0.73380  0.20388  1.0000
  H   H51       1.0  0.55782  0.78075  0.20356  1.0000
  C   C112      1.0  0.62221  0.81295  0.34691  1.0000
  C   C113      1.0  0.65025  0.86817  0.34691  1.0000
  C   C114      1.0  0.70547  0.89620  0.34691  1.0000
  C   C115      1.0  0.73265  0.86816  0.34691  1.0000
  C   C116      1.0  0.70546  0.81294  0.34691  1.0000
  C   C117      1.0  0.65024  0.78576  0.34692  1.0000
  H   H52       1.0  0.77266  0.88816  0.34673  1.0000
  H   H53       1.0  0.63023  0.74574  0.34674  1.0000
  H   H54       1.0  0.63024  0.88818  0.34673  1.0000
  C   C118      1.0  0.89989  0.70178  0.34751  1.0000
  C   C119      1.0  0.87184  0.64656  0.34750  1.0000
  C   C120      1.0  0.81662  0.61852  0.34750  1.0000
  C   C121      1.0  0.78944  0.64657  0.34752  1.0000
  C   C122      1.0  0.81663  0.70179  0.34751  1.0000
  C   C123      1.0  0.87185  0.72897  0.34752  1.0000
  H   H55       1.0  0.74943  0.62656  0.34727  1.0000
  H   H56       1.0  0.89186  0.76898  0.34727  1.0000
  H   H57       1.0  0.89184  0.62655  0.34727  1.0000
  C   C124      1.0  0.77472  0.74369  0.42813  1.0000
  C   C125      1.0  0.74748  0.77092  0.42738  1.0000
  N   N10       1.0  0.73964  0.77875  0.51324  1.0000
  O   O10       1.0  0.78434  0.73408  0.51402  1.0000
  C   C126      1.0  0.76161  0.75679  0.56272  1.0000
  H   H58       1.0  0.76139  0.75702  0.63179  1.0000
  C   C127      1.0  0.77472  0.53472  0.42813  1.0000
  C   C128      1.0  0.74749  0.98025  0.42737  1.0000
  N   N11       1.0  0.73966  0.96457  0.51324  1.0000
  O   O11       1.0  0.78433  0.55395  0.51402  1.0000
  C   C129      1.0  0.76161  0.50850  0.56272  1.0000
  H   H59       1.0  0.76139  0.50805  0.63179  1.0000
  C   C130      1.0  0.98368  0.74368  0.42813  1.0000
  C   C131      1.0  0.53816  0.77093  0.42738  1.0000
  N   N12       1.0  0.55383  0.77876  0.51324  1.0000
  O   O12       1.0  0.96446  0.73407  0.51402  1.0000
  C   C132      1.0  0.00991  0.75679  0.56272  1.0000
  H   H60       1.0  0.01036  0.75702  0.63179  1.0000
