data_image0
_chemical_formula_structural       C2HC6H3C2HC6H3C2HC6H3C2NCNC2H3CH3C2NCNC2H3CH3C2NCNC2H3CH3C2NCNC2H3CH3C2NCNC2H3CH3C2NCNC2H3CH3NC18H12NC18H12NC18H12NC18H12NC18H12NC18H12C2NCNC2H3CH3C2NCNC2H3CH3C2NCNC2H3CH3C2HC6H3C2HC6H3C2HC6H3C2HC6H3C2HC6H3C2HC6H3
_chemical_formula_sum              "C234 H162 N24"
_cell_length_a       68.2913
_cell_length_b       68.2913
_cell_length_c       14.94
_cell_angle_alpha    90
_cell_angle_beta     90
_cell_angle_gamma    120

_space_group_name_H-M_alt    "P 1"
_space_group_IT_number       1

loop_
  _space_group_symop_operation_xyz
  'x, y, z'

loop_
  _atom_site_type_symbol
  _atom_site_label
  _atom_site_symmetry_multiplicity
  _atom_site_fract_x
  _atom_site_fract_y
  _atom_site_fract_z
  _atom_site_occupancy
  C   C1        1.0  0.02716  0.51360  0.26403  1.0000
  C   C2        1.0  0.05103  0.52501  0.26770  1.0000
  H   H1        1.0  0.05961  0.52772  0.20868  1.0000
  C   C3        1.0  0.99106  0.49594  0.34499  1.0000
  C   C4        1.0  0.94283  0.47140  0.34681  1.0000
  C   C5        1.0  0.95524  0.47908  0.26546  1.0000
  C   C6        1.0  0.97911  0.49055  0.26291  1.0000
  C   C7        1.0  0.99137  0.49666  0.18173  1.0000
  C   C8        1.0  0.01515  0.50750  0.18230  1.0000
  H   H2        1.0  0.98307  0.49269  0.12162  1.0000
  H   H3        1.0  0.02362  0.51146  0.12258  1.0000
  H   H4        1.0  0.94681  0.47631  0.20599  1.0000
  C   C9        1.0  0.49145  0.51458  0.26403  1.0000
  C   C10       1.0  0.48005  0.52704  0.26777  1.0000
  H   H5        1.0  0.47737  0.53295  0.20878  1.0000
  C   C11       1.0  0.50908  0.49610  0.34490  1.0000
  C   C12       1.0  0.53361  0.47240  0.34660  1.0000
  C   C13       1.0  0.52597  0.47718  0.26527  1.0000
  C   C14       1.0  0.51450  0.48959  0.26279  1.0000
  C   C15       1.0  0.50842  0.49578  0.18164  1.0000
  C   C16       1.0  0.49757  0.50870  0.18227  1.0000
  H   H6        1.0  0.51240  0.49147  0.12150  1.0000
  H   H7        1.0  0.49365  0.51326  0.12257  1.0000
  H   H8        1.0  0.52876  0.47155  0.20577  1.0000
  C   C17       1.0  0.49045  0.97784  0.26409  1.0000
  C   C18       1.0  0.47799  0.95397  0.26782  1.0000
  H   H9        1.0  0.47208  0.94538  0.20882  1.0000
  C   C19       1.0  0.50891  0.01395  0.34497  1.0000
  C   C20       1.0  0.53259  0.06218  0.34668  1.0000
  C   C21       1.0  0.52783  0.04976  0.26535  1.0000
  C   C22       1.0  0.51543  0.02588  0.26286  1.0000
  C   C23       1.0  0.50925  0.01362  0.18171  1.0000
  C   C24       1.0  0.49633  0.98984  0.18233  1.0000
  H   H10       1.0  0.51356  0.02191  0.12157  1.0000
  H   H11       1.0  0.49179  0.98136  0.12262  1.0000
  H   H12       1.0  0.53346  0.05818  0.20586  1.0000
  C   C25       1.0  0.33220  0.55729  0.35323  1.0000
  C   C26       1.0  0.32222  0.55734  0.26916  1.0000
  N   N1        1.0  0.30167  0.55600  0.26791  1.0000
  C   C27       1.0  0.28962  0.55498  0.34154  1.0000
  N   N2        1.0  0.25868  0.55225  0.25324  1.0000
  C   C28       1.0  0.23872  0.55180  0.24060  1.0000
  C   C29       1.0  0.33331  0.56083  0.18060  1.0000
  H   H13       1.0  0.35060  0.57503  0.18340  1.0000
  H   H14       1.0  0.32434  0.56459  0.12892  1.0000
  H   H15       1.0  0.33349  0.54563  0.15995  1.0000
  C   C30       1.0  0.23016  0.54722  0.14742  1.0000
  H   H16       1.0  0.23093  0.53270  0.12115  1.0000
  H   H17       1.0  0.24069  0.56190  0.10564  1.0000
  H   H18       1.0  0.21264  0.54326  0.14220  1.0000
  C   C31       1.0  0.44782  0.77594  0.35358  1.0000
  C   C32       1.0  0.44786  0.76595  0.26953  1.0000
  N   N3        1.0  0.44921  0.74674  0.26831  1.0000
  C   C33       1.0  0.45019  0.73569  0.34197  1.0000
  N   N4        1.0  0.45297  0.70751  0.25373  1.0000
  C   C34       1.0  0.45341  0.68799  0.24110  1.0000
  C   C35       1.0  0.44439  0.77355  0.18093  1.0000
  H   H19       1.0  0.43018  0.77662  0.18361  1.0000
  H   H20       1.0  0.44066  0.76083  0.12924  1.0000
  H   H21       1.0  0.45959  0.78893  0.16035  1.0000
  C   C36       1.0  0.45805  0.68403  0.14798  1.0000
  H   H22       1.0  0.47259  0.69933  0.12184  1.0000
  H   H23       1.0  0.44340  0.67990  0.10605  1.0000
  H   H24       1.0  0.46200  0.67048  0.14280  1.0000
  C   C37       1.0  0.22912  0.67284  0.35344  1.0000
  C   C38       1.0  0.23912  0.68286  0.26939  1.0000
  N   N5        1.0  0.25833  0.70342  0.26819  1.0000
  C   C39       1.0  0.26938  0.71544  0.34185  1.0000
  N   N6        1.0  0.29757  0.74641  0.25364  1.0000
  C   C40       1.0  0.31709  0.76638  0.24102  1.0000
  C   C41       1.0  0.23151  0.67181  0.18078  1.0000
  H   H25       1.0  0.22842  0.65452  0.18345  1.0000
  H   H26       1.0  0.24423  0.68079  0.12910  1.0000
  H   H27       1.0  0.21613  0.67165  0.16022  1.0000
  C   C42       1.0  0.32105  0.77497  0.14791  1.0000
  H   H28       1.0  0.30576  0.77423  0.12175  1.0000
  H   H29       1.0  0.32518  0.76445  0.10598  1.0000
  H   H30       1.0  0.33461  0.79249  0.14274  1.0000
  C   C43       1.0  0.67419  0.44719  0.34710  1.0000
  C   C44       1.0  0.68326  0.44567  0.26285  1.0000
  N   N7        1.0  0.70363  0.44661  0.26056  1.0000
  C   C45       1.0  0.71625  0.44849  0.33346  1.0000
  N   N8        1.0  0.74601  0.44919  0.24359  1.0000
  C   C46       1.0  0.76545  0.44865  0.22995  1.0000
  C   C47       1.0  0.67132  0.44102  0.17574  1.0000
  H   H31       1.0  0.65406  0.42691  0.18225  1.0000
  H   H32       1.0  0.67976  0.43653  0.12426  1.0000
  H   H33       1.0  0.67095  0.45594  0.15236  1.0000
  C   C48       1.0  0.77350  0.45162  0.13613  1.0000
  H   H34       1.0  0.76467  0.45777  0.09374  1.0000
  H   H35       1.0  0.77044  0.43558  0.10843  1.0000
  H   H36       1.0  0.79154  0.46395  0.13283  1.0000
  C   C49       1.0  0.55769  0.22793  0.34660  1.0000
  C   C50       1.0  0.55932  0.23856  0.26235  1.0000
  N   N9        1.0  0.55839  0.25798  0.25996  1.0000
  C   C51       1.0  0.55635  0.26866  0.33277  1.0000
  N   N10       1.0  0.55584  0.29780  0.24277  1.0000
  C   C52       1.0  0.55642  0.31780  0.22906  1.0000
  C   C53       1.0  0.56422  0.23138  0.17546  1.0000
  H   H37       1.0  0.57834  0.22828  0.18255  1.0000
  H   H38       1.0  0.56880  0.24435  0.12410  1.0000
  H   H39       1.0  0.54938  0.21610  0.15157  1.0000
  C   C54       1.0  0.55360  0.32293  0.13514  1.0000
  H   H40       1.0  0.54747  0.30797  0.09270  1.0000
  H   H41       1.0  0.56969  0.33588  0.10777  1.0000
  H   H42       1.0  0.54132  0.32870  0.13148  1.0000
  C   C55       1.0  0.77700  0.33083  0.34732  1.0000
  C   C56       1.0  0.76644  0.32176  0.26304  1.0000
  N   N11       1.0  0.74700  0.30141  0.26072  1.0000
  C   C57       1.0  0.73624  0.28879  0.33360  1.0000
  N   N12       1.0  0.70715  0.25905  0.24368  1.0000
  C   C58       1.0  0.68715  0.23963  0.22999  1.0000
  C   C59       1.0  0.77370  0.33373  0.17597  1.0000
  H   H43       1.0  0.77684  0.35098  0.18260  1.0000
  H   H44       1.0  0.76077  0.32530  0.12451  1.0000
  H   H45       1.0  0.78899  0.33412  0.15250  1.0000
  C   C60       1.0  0.68209  0.23158  0.13617  1.0000
  H   H46       1.0  0.69707  0.24041  0.09381  1.0000
  H   H47       1.0  0.66912  0.23464  0.10844  1.0000
  H   H48       1.0  0.67639  0.21355  0.13289  1.0000
  N   N13       1.0  0.16079  0.58041  0.34213  1.0000
  C   C61       1.0  0.17418  0.60414  0.36102  1.0000
  C   C62       1.0  0.13663  0.56860  0.34408  1.0000
  C   C63       1.0  0.17318  0.56920  0.32038  1.0000
  C   C64       1.0  0.18955  0.57782  0.25138  1.0000
  C   C65       1.0  0.20699  0.57250  0.24821  1.0000
  C   C66       1.0  0.20780  0.55709  0.30957  1.0000
  C   C67       1.0  0.19005  0.54685  0.37293  1.0000
  C   C68       1.0  0.17344  0.55320  0.37960  1.0000
  C   C69       1.0  0.17314  0.62045  0.30616  1.0000
  C   C70       1.0  0.19015  0.64335  0.30922  1.0000
  C   C71       1.0  0.20974  0.65058  0.36225  1.0000
  C   C72       1.0  0.20996  0.63453  0.42184  1.0000
  C   C73       1.0  0.19220  0.61191  0.42307  1.0000
  C   C74       1.0  0.12401  0.57083  0.27406  1.0000
  C   C75       1.0  0.10021  0.55977  0.27754  1.0000
  C   C76       1.0  0.08772  0.54474  0.34819  1.0000
  C   C77       1.0  0.10064  0.54164  0.41521  1.0000
  C   C78       1.0  0.12446  0.55395  0.41526  1.0000
  H   H49       1.0  0.18863  0.65446  0.26809  1.0000
  H   H50       1.0  0.16068  0.61573  0.25962  1.0000
  H   H51       1.0  0.19392  0.60057  0.46218  1.0000
  H   H52       1.0  0.22379  0.63875  0.46107  1.0000
  H   H53       1.0  0.19067  0.59036  0.21056  1.0000
  H   H54       1.0  0.22001  0.58129  0.20438  1.0000
  H   H55       1.0  0.13205  0.58062  0.21967  1.0000
  H   H56       1.0  0.09208  0.56289  0.22684  1.0000
  H   H57       1.0  0.09287  0.53011  0.46510  1.0000
  H   H58       1.0  0.13283  0.55191  0.46773  1.0000
  H   H59       1.0  0.16268  0.54731  0.43278  1.0000
  H   H60       1.0  0.19005  0.53591  0.41976  1.0000
  N   N14       1.0  0.42464  0.58139  0.34230  1.0000
  C   C79       1.0  0.40091  0.57105  0.36106  1.0000
  C   C80       1.0  0.43644  0.56903  0.34426  1.0000
  C   C81       1.0  0.43588  0.60499  0.32080  1.0000
  C   C82       1.0  0.42727  0.61278  0.25189  1.0000
  C   C83       1.0  0.43267  0.63556  0.24850  1.0000
  C   C84       1.0  0.44805  0.65175  0.31001  1.0000
  C   C85       1.0  0.45821  0.64421  0.37355  1.0000
  C   C86       1.0  0.45187  0.62123  0.38009  1.0000
  C   C87       1.0  0.38461  0.55373  0.30604  1.0000
  C   C88       1.0  0.36172  0.54786  0.30893  1.0000
  C   C89       1.0  0.35446  0.56018  0.36213  1.0000
  C   C90       1.0  0.37050  0.57642  0.42183  1.0000
  C   C91       1.0  0.39312  0.58128  0.42314  1.0000
  C   C92       1.0  0.43423  0.55420  0.27417  1.0000
  C   C93       1.0  0.44529  0.54145  0.27762  1.0000
  C   C94       1.0  0.46029  0.54397  0.34832  1.0000
  C   C95       1.0  0.46339  0.55997  0.41541  1.0000
  C   C96       1.0  0.45108  0.57148  0.41547  1.0000
  H   H61       1.0  0.35061  0.53522  0.26782  1.0000
  H   H62       1.0  0.38934  0.54600  0.25950  1.0000
  H   H63       1.0  0.40445  0.59432  0.46236  1.0000
  H   H64       1.0  0.36627  0.58601  0.46114  1.0000
  H   H65       1.0  0.41482  0.60137  0.21064  1.0000
  H   H66       1.0  0.42393  0.63982  0.20450  1.0000
  H   H67       1.0  0.42445  0.55247  0.21975  1.0000
  H   H68       1.0  0.44218  0.53022  0.22687  1.0000
  H   H69       1.0  0.47491  0.56372  0.46532  1.0000
  H   H70       1.0  0.45311  0.58189  0.46797  1.0000
  H   H71       1.0  0.45769  0.61636  0.43346  1.0000
  H   H72       1.0  0.46912  0.65512  0.42051  1.0000
  N   N15       1.0  0.42366  0.84422  0.34234  1.0000
  C   C97       1.0  0.43400  0.83083  0.36115  1.0000
  C   C98       1.0  0.43601  0.86838  0.34428  1.0000
  C   C99       1.0  0.40005  0.83184  0.32082  1.0000
  C   C100      1.0  0.39229  0.81546  0.25185  1.0000
  C   C101      1.0  0.36952  0.79806  0.24855  1.0000
  C   C102      1.0  0.35331  0.79724  0.30997  1.0000
  C   C103      1.0  0.36084  0.81497  0.37346  1.0000
  C   C104      1.0  0.38381  0.83160  0.38009  1.0000
  C   C105      1.0  0.45136  0.83190  0.30626  1.0000
  C   C106      1.0  0.45725  0.81489  0.30924  1.0000
  C   C107      1.0  0.44492  0.79531  0.36240  1.0000
  C   C108      1.0  0.42866  0.79509  0.42204  1.0000
  C   C109      1.0  0.42378  0.81283  0.42329  1.0000
  C   C110      1.0  0.45084  0.88101  0.27420  1.0000
  C   C111      1.0  0.46358  0.90480  0.27766  1.0000
  C   C112      1.0  0.46106  0.91729  0.34835  1.0000
  C   C113      1.0  0.44506  0.90438  0.41544  1.0000
  C   C114      1.0  0.43355  0.88056  0.41550  1.0000
  H   H73       1.0  0.46991  0.81643  0.26823  1.0000
  H   H74       1.0  0.45909  0.84436  0.25974  1.0000
  H   H75       1.0  0.41072  0.81111  0.46244  1.0000
  H   H76       1.0  0.41907  0.78126  0.46133  1.0000
  H   H77       1.0  0.40371  0.81444  0.21060  1.0000
  H   H78       1.0  0.36526  0.78509  0.20440  1.0000
  H   H79       1.0  0.45257  0.87296  0.21979  1.0000
  H   H80       1.0  0.47481  0.91293  0.22692  1.0000
  H   H81       1.0  0.44131  0.91215  0.46536  1.0000
  H   H82       1.0  0.42315  0.87219  0.46801  1.0000
  H   H83       1.0  0.38868  0.84230  0.43345  1.0000
  H   H84       1.0  0.34993  0.81496  0.42044  1.0000
  N   N16       1.0  0.84530  0.42274  0.33511  1.0000
  C   C115      1.0  0.83233  0.39909  0.35580  1.0000
  C   C116      1.0  0.86945  0.43488  0.33772  1.0000
  C   C117      1.0  0.83243  0.43334  0.31131  1.0000
  C   C118      1.0  0.81556  0.42353  0.24450  1.0000
  C   C119      1.0  0.79773  0.42827  0.24080  1.0000
  C   C120      1.0  0.79699  0.44431  0.29874  1.0000
  C   C121      1.0  0.81529  0.45583  0.35903  1.0000
  C   C122      1.0  0.83230  0.45002  0.36684  1.0000
  C   C123      1.0  0.83312  0.38281  0.29987  1.0000
  C   C124      1.0  0.81599  0.35996  0.30281  1.0000
  C   C125      1.0  0.79665  0.35282  0.35727  1.0000
  C   C126      1.0  0.79682  0.36878  0.41843  1.0000
  C   C127      1.0  0.81465  0.39137  0.41943  1.0000
  C   C128      1.0  0.88237  0.43261  0.26908  1.0000
  C   C129      1.0  0.90617  0.44391  0.27370  1.0000
  C   C130      1.0  0.91833  0.45915  0.34423  1.0000
  C   C131      1.0  0.90512  0.46225  0.40989  1.0000
  C   C132      1.0  0.88130  0.44973  0.40882  1.0000
  H   H85       1.0  0.81711  0.34889  0.26003  1.0000
  H   H86       1.0  0.84522  0.38759  0.25173  1.0000
  H   H87       1.0  0.81311  0.40278  0.45877  1.0000
  H   H88       1.0  0.78312  0.36456  0.45851  1.0000
  H   H89       1.0  0.81442  0.41058  0.20621  1.0000
  H   H90       1.0  0.78429  0.41833  0.20050  1.0000
  H   H91       1.0  0.87456  0.42259  0.21495  1.0000
  H   H92       1.0  0.91454  0.44078  0.22402  1.0000
  H   H93       1.0  0.91265  0.47390  0.45956  1.0000
  H   H94       1.0  0.87269  0.45176  0.46043  1.0000
  H   H95       1.0  0.84348  0.45689  0.41835  1.0000
  H   H96       1.0  0.81543  0.46730  0.40346  1.0000
  N   N17       1.0  0.58228  0.42353  0.33462  1.0000
  C   C133      1.0  0.60591  0.43421  0.35542  1.0000
  C   C134      1.0  0.57014  0.43555  0.33730  1.0000
  C   C135      1.0  0.57168  0.40008  0.31062  1.0000
  C   C136      1.0  0.58154  0.39301  0.24403  1.0000
  C   C137      1.0  0.57678  0.37044  0.24026  1.0000
  C   C138      1.0  0.56064  0.35363  0.29785  1.0000
  C   C139      1.0  0.54910  0.36043  0.35799  1.0000
  C   C140      1.0  0.55493  0.38325  0.36585  1.0000
  C   C141      1.0  0.62221  0.45133  0.29969  1.0000
  C   C142      1.0  0.64505  0.45703  0.30259  1.0000
  C   C143      1.0  0.65219  0.44483  0.35702  1.0000
  C   C144      1.0  0.63623  0.42901  0.41807  1.0000
  C   C145      1.0  0.61363  0.42424  0.41900  1.0000
  C   C146      1.0  0.57242  0.45077  0.26874  1.0000
  C   C147      1.0  0.56112  0.46326  0.27343  1.0000
  C   C148      1.0  0.54587  0.46015  0.34396  1.0000
  C   C149      1.0  0.54277  0.44383  0.40956  1.0000
  C   C150      1.0  0.55528  0.43253  0.40842  1.0000
  H   H97       1.0  0.65613  0.46923  0.25986  1.0000
  H   H98       1.0  0.61744  0.45863  0.25141  1.0000
  H   H99       1.0  0.60221  0.41126  0.45822  1.0000
  H   H100      1.0  0.64044  0.41952  0.45810  1.0000
  H   H101      1.0  0.59455  0.40483  0.20596  1.0000
  H   H102      1.0  0.58675  0.36694  0.20015  1.0000
  H   H103      1.0  0.58244  0.45298  0.21461  1.0000
  H   H104      1.0  0.56426  0.47478  0.22382  1.0000
  H   H105      1.0  0.53111  0.43969  0.45920  1.0000
  H   H106      1.0  0.55326  0.42188  0.45999  1.0000
  H   H107      1.0  0.54800  0.38754  0.41719  1.0000
  H   H108      1.0  0.53753  0.34908  0.40212  1.0000
  N   N18       1.0  0.58139  0.15972  0.33474  1.0000
  C   C151      1.0  0.57067  0.17265  0.35531  1.0000
  C   C152      1.0  0.56941  0.13557  0.33740  1.0000
  C   C153      1.0  0.60487  0.17262  0.31111  1.0000
  C   C154      1.0  0.61194  0.18949  0.24426  1.0000
  C   C155      1.0  0.63450  0.20735  0.24074  1.0000
  C   C156      1.0  0.65127  0.20809  0.29875  1.0000
  C   C157      1.0  0.64447  0.18980  0.35911  1.0000
  C   C158      1.0  0.62167  0.17275  0.36671  1.0000
  C   C159      1.0  0.55363  0.17185  0.29918  1.0000
  C   C160      1.0  0.54790  0.18898  0.30196  1.0000
  C   C161      1.0  0.56003  0.20829  0.35666  1.0000
  C   C162      1.0  0.57574  0.20809  0.41813  1.0000
  C   C163      1.0  0.58053  0.19029  0.41912  1.0000
  C   C164      1.0  0.55421  0.12262  0.26880  1.0000
  C   C165      1.0  0.54172  0.09882  0.27348  1.0000
  C   C166      1.0  0.54483  0.08668  0.34402  1.0000
  C   C167      1.0  0.56114  0.09992  0.40966  1.0000
  C   C168      1.0  0.57242  0.12373  0.40854  1.0000
  H   H109      1.0  0.53579  0.18790  0.25886  1.0000
  H   H110      1.0  0.54643  0.15983  0.25068  1.0000
  H   H111      1.0  0.59347  0.19182  0.45863  1.0000
  H   H112      1.0  0.58518  0.22179  0.45830  1.0000
  H   H113      1.0  0.60011  0.19062  0.20606  1.0000
  H   H114      1.0  0.63800  0.22078  0.20046  1.0000
  H   H115      1.0  0.55199  0.13042  0.21464  1.0000
  H   H116      1.0  0.53022  0.09044  0.22384  1.0000
  H   H117      1.0  0.56527  0.09240  0.45934  1.0000
  H   H118      1.0  0.58305  0.13236  0.46016  1.0000
  H   H119      1.0  0.61735  0.16157  0.41819  1.0000
  H   H120      1.0  0.65582  0.18963  0.40341  1.0000
  C   C169      1.0  0.06321  0.53266  0.34957  1.0000
  C   C170      1.0  0.04980  0.52799  0.42880  1.0000
  N   N19       1.0  0.02683  0.51590  0.42276  1.0000
  C   C171      1.0  0.01498  0.50823  0.34554  1.0000
  N   N20       1.0  0.97899  0.48826  0.42172  1.0000
  C   C172      1.0  0.95600  0.47613  0.42675  1.0000
  C   C173      1.0  0.05853  0.53698  0.51943  1.0000
  H   H121      1.0  0.07304  0.55407  0.51562  1.0000
  H   H122      1.0  0.06333  0.52593  0.55384  1.0000
  H   H123      1.0  0.04568  0.53784  0.56007  1.0000
  C   C174      1.0  0.94699  0.46717  0.51712  1.0000
  H   H124      1.0  0.95981  0.46666  0.55918  1.0000
  H   H125      1.0  0.93271  0.44996  0.51299  1.0000
  H   H126      1.0  0.94175  0.47803  0.55024  1.0000
  C   C175      1.0  0.47238  0.53154  0.34965  1.0000
  C   C176      1.0  0.47701  0.52275  0.42884  1.0000
  N   N21       1.0  0.48910  0.51188  0.42273  1.0000
  C   C177      1.0  0.49680  0.50773  0.34550  1.0000
  N   N22       1.0  0.51673  0.49167  0.42161  1.0000
  C   C178      1.0  0.52887  0.48081  0.42659  1.0000
  C   C179      1.0  0.46801  0.52248  0.51945  1.0000
  H   H127      1.0  0.45092  0.51989  0.51562  1.0000
  H   H128      1.0  0.47904  0.53832  0.55391  1.0000
  H   H129      1.0  0.46716  0.50876  0.56007  1.0000
  C   C180      1.0  0.53778  0.48071  0.51698  1.0000
  H   H130      1.0  0.53829  0.49404  0.55912  1.0000
  H   H131      1.0  0.55500  0.48364  0.51291  1.0000
  H   H132      1.0  0.52691  0.46460  0.54999  1.0000
  C   C181      1.0  0.47349  0.94180  0.34969  1.0000
  C   C182      1.0  0.48230  0.95522  0.42888  1.0000
  N   N23       1.0  0.49315  0.97820  0.42279  1.0000
  C   C183      1.0  0.49729  0.99003  0.34556  1.0000
  N   N24       1.0  0.51332  0.02603  0.42168  1.0000
  C   C184      1.0  0.52416  0.04902  0.42665  1.0000
  C   C185      1.0  0.48253  0.94650  0.51954  1.0000
  H   H133      1.0  0.48509  0.93198  0.51579  1.0000
  H   H134      1.0  0.46668  0.94172  0.55390  1.0000
  H   H135      1.0  0.49624  0.95935  0.56019  1.0000
  C   C186      1.0  0.52429  0.05804  0.51707  1.0000
  H   H136      1.0  0.51096  0.04523  0.55922  1.0000
  H   H137      1.0  0.52137  0.07233  0.51306  1.0000
  H   H138      1.0  0.54040  0.06326  0.55002  1.0000
  C   C187      1.0  0.29902  0.55577  0.42694  1.0000
  C   C188      1.0  0.31998  0.55641  0.43143  1.0000
  H   H139      1.0  0.32663  0.55666  0.49317  1.0000
  C   C189      1.0  0.26867  0.55432  0.33394  1.0000
  C   C190      1.0  0.22737  0.55446  0.31578  1.0000
  C   C191      1.0  0.23733  0.55626  0.40115  1.0000
  C   C192      1.0  0.25756  0.55568  0.41175  1.0000
  C   C193      1.0  0.26715  0.55682  0.49671  1.0000
  C   C194      1.0  0.28748  0.55641  0.50434  1.0000
  H   H140      1.0  0.25933  0.55774  0.55368  1.0000
  H   H141      1.0  0.29413  0.55730  0.56660  1.0000
  H   H142      1.0  0.23008  0.55861  0.45708  1.0000
  C   C195      1.0  0.44935  0.74428  0.42735  1.0000
  C   C196      1.0  0.44871  0.76461  0.43181  1.0000
  H   H143      1.0  0.44839  0.77097  0.49354  1.0000
  C   C197      1.0  0.45085  0.71540  0.33439  1.0000
  C   C198      1.0  0.45069  0.67396  0.31627  1.0000
  C   C199      1.0  0.44886  0.68210  0.40161  1.0000
  C   C200      1.0  0.44945  0.70292  0.41220  1.0000
  C   C201      1.0  0.44826  0.71136  0.49715  1.0000
  C   C202      1.0  0.44865  0.73208  0.50475  1.0000
  H   H144      1.0  0.44729  0.70259  0.55411  1.0000
  H   H145      1.0  0.44775  0.73784  0.56700  1.0000
  H   H146      1.0  0.44646  0.67248  0.45753  1.0000
  C   C203      1.0  0.26078  0.70601  0.42723  1.0000
  C   C204      1.0  0.24046  0.68505  0.43167  1.0000
  H   H147      1.0  0.23408  0.67837  0.49340  1.0000
  C   C205      1.0  0.28967  0.73640  0.33429  1.0000
  C   C206      1.0  0.33110  0.77769  0.31621  1.0000
  C   C207      1.0  0.32296  0.76770  0.40154  1.0000
  C   C208      1.0  0.30214  0.74748  0.41212  1.0000
  C   C209      1.0  0.29370  0.73786  0.49706  1.0000
  C   C210      1.0  0.27298  0.71751  0.50463  1.0000
  H   H148      1.0  0.30247  0.74566  0.55402  1.0000
  H   H149      1.0  0.26721  0.71086  0.56689  1.0000
  H   H150      1.0  0.33257  0.77494  0.45748  1.0000
  C   C211      1.0  0.70770  0.44909  0.41924  1.0000
  C   C212      1.0  0.68697  0.44893  0.42463  1.0000
  H   H151      1.0  0.68087  0.44959  0.48651  1.0000
  C   C213      1.0  0.73685  0.44849  0.32495  1.0000
  C   C214      1.0  0.77721  0.44660  0.30509  1.0000
  C   C215      1.0  0.76818  0.44634  0.39110  1.0000
  C   C216      1.0  0.74842  0.44777  0.40244  1.0000
  C   C217      1.0  0.73974  0.44816  0.48787  1.0000
  C   C218      1.0  0.71978  0.44925  0.49619  1.0000
  H   H152      1.0  0.74794  0.44777  0.54462  1.0000
  H   H153      1.0  0.71379  0.44942  0.55879  1.0000
  H   H154      1.0  0.77584  0.44465  0.44714  1.0000
  C   C219      1.0  0.55559  0.25944  0.41856  1.0000
  C   C220      1.0  0.55577  0.23889  0.42403  1.0000
  H   H155      1.0  0.55499  0.23207  0.48592  1.0000
  C   C221      1.0  0.55637  0.28927  0.32418  1.0000
  C   C222      1.0  0.55831  0.33154  0.30422  1.0000
  C   C223      1.0  0.55841  0.32270  0.39026  1.0000
  C   C224      1.0  0.55694  0.30150  0.40164  1.0000
  C   C225      1.0  0.55639  0.29237  0.48709  1.0000
  C   C226      1.0  0.55526  0.27130  0.49545  1.0000
  H   H156      1.0  0.55668  0.30091  0.54382  1.0000
  H   H157      1.0  0.55500  0.26509  0.55807  1.0000
  H   H158      1.0  0.56000  0.33201  0.44633  1.0000
  C   C227      1.0  0.74539  0.29732  0.41940  1.0000
  C   C228      1.0  0.76596  0.31804  0.42483  1.0000
  H   H159      1.0  0.77272  0.32414  0.48673  1.0000
  C   C229      1.0  0.71562  0.26820  0.32505  1.0000
  C   C230      1.0  0.67336  0.22787  0.30512  1.0000
  C   C231      1.0  0.68212  0.23690  0.39115  1.0000
  C   C232      1.0  0.70332  0.25664  0.40252  1.0000
  C   C233      1.0  0.71238  0.26530  0.48797  1.0000
  C   C234      1.0  0.73345  0.28523  0.49632  1.0000
  H   H160      1.0  0.70378  0.25710  0.54471  1.0000
  H   H161      1.0  0.73961  0.29123  0.55893  1.0000
  H   H162      1.0  0.67276  0.22923  0.44717  1.0000
