data_image0
_chemical_formula_structural       CHCNHCHC4NH4C6N2H6C6N2H6C2NC3NHCH3C2NC3NHCH3C2NC3NHCH3C2NC3NHCH3C2NC3NHCH3C2NC3NHCH3C3HNC2NH2C3HNC3NH3C3HNC3NH3C2HC5H3C2HC5H3C2HC5H3C2HC5H3C2HC5H3C2HC5H3
_chemical_formula_sum              "C114 H78 N24"
_cell_length_a       31.2387
_cell_length_b       31.2387
_cell_length_c       14.9208
_cell_angle_alpha    90
_cell_angle_beta     90
_cell_angle_gamma    120

_space_group_name_H-M_alt    "P 1"
_space_group_IT_number       1

loop_
  _space_group_symop_operation_xyz
  'x, y, z'

loop_
  _atom_site_type_symbol
  _atom_site_label
  _atom_site_symmetry_multiplicity
  _atom_site_fract_x
  _atom_site_fract_y
  _atom_site_fract_z
  _atom_site_occupancy
  C   C1        1.0  0.03102  0.51739  0.32848  1.0000
  H   H1        1.0  0.00500  0.57208  0.23246  1.0000
  C   C2        1.0  0.05879  0.56894  0.30506  1.0000
  N   N1        1.0  0.03704  0.59145  0.26086  1.0000
  H   H2        1.0  0.05556  0.62574  0.24191  1.0000
  C   C3        1.0  0.05847  0.49498  0.35814  1.0000
  H   H3        1.0  0.04045  0.45848  0.37602  1.0000
  C   C4        1.0  0.97693  0.48781  0.32838  1.0000
  C   C5        1.0  0.89723  0.40845  0.32270  1.0000
  C   C6        1.0  0.94921  0.43629  0.30473  1.0000
  C   C7        1.0  0.11076  0.59672  0.32313  1.0000
  N   N2        1.0  0.97110  0.41388  0.26058  1.0000
  H   H4        1.0  0.00300  0.43344  0.23190  1.0000
  H   H5        1.0  0.95240  0.37971  0.24100  1.0000
  H   H6        1.0  0.20814  0.63228  0.34275  1.0000
  H   H7        1.0  0.79982  0.37280  0.34205  1.0000
  C   C8        1.0  0.51877  0.49041  0.32842  1.0000
  C   C9        1.0  0.59808  0.48996  0.32292  1.0000
  C   C10       1.0  0.57031  0.51417  0.30494  1.0000
  C   C11       1.0  0.48923  0.51496  0.32845  1.0000
  C   C12       1.0  0.43771  0.49122  0.30479  1.0000
  C   C13       1.0  0.40993  0.51542  0.32279  1.0000
  N   N3        1.0  0.59280  0.55843  0.26072  1.0000
  N   N4        1.0  0.41528  0.44698  0.26051  1.0000
  H   H8        1.0  0.57348  0.57118  0.23246  1.0000
  H   H9        1.0  0.62710  0.57418  0.24178  1.0000
  H   H10       1.0  0.38103  0.43139  0.24127  1.0000
  H   H11       1.0  0.43466  0.43435  0.23210  1.0000
  H   H12       1.0  0.37438  0.57725  0.34229  1.0000
  H   H13       1.0  0.63361  0.42811  0.34235  1.0000
  C   C14       1.0  0.51625  0.02973  0.32852  1.0000
  C   C15       1.0  0.51664  0.10946  0.32305  1.0000
  C   C16       1.0  0.49247  0.05749  0.30504  1.0000
  C   C17       1.0  0.49173  0.97562  0.32855  1.0000
  C   C18       1.0  0.51551  0.94787  0.30505  1.0000
  C   C19       1.0  0.49131  0.89588  0.32304  1.0000
  N   N5        1.0  0.44817  0.03570  0.26093  1.0000
  N   N6        1.0  0.55984  0.96969  0.26102  1.0000
  H   H14       1.0  0.43576  0.00377  0.23224  1.0000
  H   H15       1.0  0.43253  0.05427  0.24162  1.0000
  H   H16       1.0  0.57530  0.95099  0.24147  1.0000
  H   H17       1.0  0.57214  0.00155  0.23216  1.0000
  H   H18       1.0  0.42949  0.79849  0.34257  1.0000
  H   H19       1.0  0.57846  0.20686  0.34242  1.0000
  C   C20       1.0  0.35692  0.48934  0.32103  1.0000
  C   C21       1.0  0.32997  0.48916  0.24403  1.0000
  N   N7        1.0  0.28346  0.48163  0.25506  1.0000
  C   C22       1.0  0.25993  0.47360  0.33517  1.0000
  C   C23       1.0  0.21497  0.47399  0.34226  1.0000
  C   C24       1.0  0.15442  0.48792  0.27140  1.0000
  N   N8        1.0  0.19364  0.48059  0.26822  1.0000
  H   H20       1.0  0.14337  0.49653  0.21292  1.0000
  C   C25       1.0  0.35039  0.50208  0.15214  1.0000
  H   H21       1.0  0.38796  0.50848  0.14733  1.0000
  H   H22       1.0  0.35068  0.53555  0.13019  1.0000
  H   H23       1.0  0.32714  0.47196  0.10660  1.0000
  C   C26       1.0  0.51738  0.86893  0.32140  1.0000
  C   C27       1.0  0.51761  0.84225  0.24429  1.0000
  N   N9        1.0  0.52514  0.80325  0.25524  1.0000
  C   C28       1.0  0.53315  0.78770  0.33531  1.0000
  C   C29       1.0  0.53274  0.74233  0.34230  1.0000
  C   C30       1.0  0.51882  0.66789  0.27122  1.0000
  N   N10       1.0  0.52614  0.71444  0.26819  1.0000
  H   H24       1.0  0.51011  0.64818  0.21277  1.0000
  C   C31       1.0  0.50470  0.84978  0.15242  1.0000
  H   H25       1.0  0.49829  0.88094  0.14764  1.0000
  H   H26       1.0  0.47124  0.81660  0.13042  1.0000
  H   H27       1.0  0.53483  0.85668  0.10689  1.0000
  C   C32       1.0  0.13770  0.64972  0.32154  1.0000
  C   C33       1.0  0.16431  0.67666  0.24438  1.0000
  N   N11       1.0  0.20332  0.72318  0.25528  1.0000
  C   C34       1.0  0.21890  0.74678  0.33531  1.0000
  C   C35       1.0  0.26428  0.79173  0.34219  1.0000
  C   C36       1.0  0.33876  0.85210  0.27116  1.0000
  N   N12       1.0  0.29216  0.81298  0.26806  1.0000
  H   H28       1.0  0.35839  0.86325  0.21265  1.0000
  C   C37       1.0  0.15685  0.65619  0.15254  1.0000
  H   H29       1.0  0.12572  0.61862  0.14775  1.0000
  H   H30       1.0  0.19006  0.65593  0.13065  1.0000
  H   H31       1.0  0.14997  0.67940  0.10692  1.0000
  C   C38       1.0  0.65109  0.51601  0.32131  1.0000
  C   C39       1.0  0.67802  0.51632  0.24419  1.0000
  N   N13       1.0  0.72451  0.52377  0.25515  1.0000
  C   C40       1.0  0.74806  0.53173  0.33522  1.0000
  C   C41       1.0  0.79299  0.53126  0.34215  1.0000
  C   C42       1.0  0.85343  0.51727  0.27108  1.0000
  N   N14       1.0  0.81426  0.52468  0.26801  1.0000
  H   H32       1.0  0.86446  0.50869  0.21254  1.0000
  C   C43       1.0  0.65757  0.50335  0.15233  1.0000
  H   H33       1.0  0.62001  0.49696  0.14752  1.0000
  H   H34       1.0  0.65725  0.46985  0.13044  1.0000
  H   H35       1.0  0.68081  0.53343  0.10672  1.0000
  C   C44       1.0  0.49057  0.13639  0.32147  1.0000
  C   C45       1.0  0.49020  0.16298  0.24432  1.0000
  N   N15       1.0  0.48267  0.20198  0.25521  1.0000
  C   C46       1.0  0.47467  0.21757  0.33523  1.0000
  C   C47       1.0  0.47510  0.26296  0.34213  1.0000
  C   C48       1.0  0.48911  0.33739  0.27100  1.0000
  N   N16       1.0  0.48169  0.29081  0.26798  1.0000
  H   H36       1.0  0.49775  0.35702  0.21247  1.0000
  C   C49       1.0  0.50321  0.15554  0.15247  1.0000
  H   H37       1.0  0.50968  0.12442  0.14768  1.0000
  H   H38       1.0  0.53667  0.18876  0.13058  1.0000
  H   H39       1.0  0.47312  0.14863  0.10686  1.0000
  C   C50       1.0  0.87035  0.35545  0.32085  1.0000
  C   C51       1.0  0.84362  0.32845  0.24388  1.0000
  N   N17       1.0  0.80459  0.28196  0.25490  1.0000
  C   C52       1.0  0.78905  0.25844  0.33500  1.0000
  C   C53       1.0  0.74364  0.21353  0.34208  1.0000
  C   C54       1.0  0.66916  0.15303  0.27112  1.0000
  N   N18       1.0  0.71575  0.19219  0.26799  1.0000
  H   H40       1.0  0.64952  0.14196  0.21261  1.0000
  C   C55       1.0  0.85103  0.34889  0.15202  1.0000
  H   H41       1.0  0.88219  0.38645  0.14718  1.0000
  H   H42       1.0  0.81782  0.34919  0.13022  1.0000
  H   H43       1.0  0.85784  0.32564  0.10637  1.0000
  C   C56       1.0  0.94943  0.51018  0.35792  1.0000
  C   C57       1.0  0.89740  0.48522  0.35710  1.0000
  C   C58       1.0  0.87050  0.43315  0.34453  1.0000
  H   H44       1.0  0.96741  0.54665  0.37605  1.0000
  N   N19       1.0  0.81993  0.40801  0.35257  1.0000
  C   C59       1.0  0.13743  0.57197  0.34501  1.0000
  C   C60       1.0  0.11050  0.51988  0.35738  1.0000
  N   N20       1.0  0.18799  0.59707  0.35320  1.0000
  H   H45       1.0  0.20629  0.58101  0.37155  1.0000
  H   H46       1.0  0.80160  0.42403  0.37098  1.0000
  C   C61       1.0  0.49634  0.44054  0.35802  1.0000
  C   C62       1.0  0.52123  0.41339  0.35715  1.0000
  C   C63       1.0  0.57331  0.43853  0.34471  1.0000
  H   H47       1.0  0.45984  0.42206  0.37591  1.0000
  N   N21       1.0  0.59839  0.41305  0.35279  1.0000
  C   C64       1.0  0.43468  0.56683  0.34468  1.0000
  C   C65       1.0  0.48675  0.59196  0.35721  1.0000
  C   C66       1.0  0.51165  0.56482  0.35812  1.0000
  N   N22       1.0  0.40959  0.59231  0.35278  1.0000
  H   H48       1.0  0.54813  0.58328  0.37612  1.0000
  H   H49       1.0  0.42565  0.62666  0.37122  1.0000
  H   H50       1.0  0.58233  0.37869  0.37117  1.0000
  C   C67       1.0  0.56613  0.05720  0.35811  1.0000
  C   C68       1.0  0.59323  0.10924  0.35730  1.0000
  C   C69       1.0  0.56807  0.13615  0.34485  1.0000
  H   H51       1.0  0.58463  0.03921  0.37602  1.0000
  N   N23       1.0  0.59353  0.18672  0.35292  1.0000
  C   C70       1.0  0.43989  0.86920  0.34484  1.0000
  C   C71       1.0  0.41473  0.89612  0.35724  1.0000
  C   C72       1.0  0.44183  0.94816  0.35801  1.0000
  N   N24       1.0  0.41443  0.81863  0.35302  1.0000
  H   H52       1.0  0.42335  0.96616  0.37602  1.0000
  H   H53       1.0  0.38007  0.80033  0.37137  1.0000
  H   H54       1.0  0.62790  0.20504  0.37118  1.0000
  C   C73       1.0  0.28455  0.47170  0.41366  1.0000
  C   C74       1.0  0.33256  0.47837  0.40514  1.0000
  H   H55       1.0  0.35221  0.48138  0.46216  1.0000
  C   C75       1.0  0.13519  0.49190  0.35486  1.0000
  C   C76       1.0  0.15493  0.48304  0.43332  1.0000
  C   C77       1.0  0.19498  0.47394  0.42798  1.0000
  C   C78       1.0  0.21864  0.46980  0.50543  1.0000
  C   C79       1.0  0.26277  0.46825  0.49830  1.0000
  H   H56       1.0  0.20535  0.47045  0.56780  1.0000
  H   H57       1.0  0.28053  0.46795  0.55574  1.0000
  H   H58       1.0  0.14385  0.48868  0.49463  1.0000
  C   C80       1.0  0.53505  0.81418  0.41385  1.0000
  C   C81       1.0  0.52840  0.85554  0.40544  1.0000
  H   H59       1.0  0.52537  0.87213  0.46249  1.0000
  C   C82       1.0  0.51474  0.64465  0.35466  1.0000
  C   C83       1.0  0.52363  0.67318  0.43323  1.0000
  C   C84       1.0  0.53277  0.72234  0.42797  1.0000
  C   C85       1.0  0.53691  0.75009  0.50547  1.0000
  C   C86       1.0  0.53849  0.79580  0.49844  1.0000
  H   H60       1.0  0.53625  0.73612  0.56782  1.0000
  H   H61       1.0  0.53879  0.81382  0.55593  1.0000
  H   H62       1.0  0.51794  0.65636  0.49445  1.0000
  C   C87       1.0  0.19244  0.72223  0.41386  1.0000
  C   C88       1.0  0.15110  0.67421  0.40551  1.0000
  H   H63       1.0  0.13454  0.65459  0.46259  1.0000
  C   C89       1.0  0.36207  0.87141  0.35450  1.0000
  C   C90       1.0  0.33347  0.85177  0.43302  1.0000
  C   C91       1.0  0.28430  0.81176  0.42784  1.0000
  C   C92       1.0  0.25656  0.78820  0.50539  1.0000
  C   C93       1.0  0.21085  0.74409  0.49843  1.0000
  H   H64       1.0  0.27056  0.80154  0.56771  1.0000
  H   H65       1.0  0.19284  0.72638  0.55594  1.0000
  H   H66       1.0  0.35026  0.86293  0.49427  1.0000
  C   C94       1.0  0.72350  0.53366  0.41376  1.0000
  C   C95       1.0  0.67550  0.52701  0.40535  1.0000
  H   H67       1.0  0.65586  0.52395  0.46241  1.0000
  C   C96       1.0  0.87264  0.51313  0.35443  1.0000
  C   C97       1.0  0.85293  0.52199  0.43297  1.0000
  C   C98       1.0  0.81297  0.53122  0.42782  1.0000
  C   C99       1.0  0.78940  0.53540  0.50534  1.0000
  C   C100      1.0  0.74531  0.53704  0.49834  1.0000
  H   H68       1.0  0.80270  0.53468  0.56767  1.0000
  H   H69       1.0  0.72759  0.53734  0.55584  1.0000
  H   H70       1.0  0.86414  0.51642  0.49422  1.0000
  C   C101      1.0  0.47281  0.19113  0.41381  1.0000
  C   C102      1.0  0.47947  0.14977  0.40545  1.0000
  H   H71       1.0  0.48268  0.13336  0.46259  1.0000
  C   C103      1.0  0.49328  0.36072  0.35436  1.0000
  C   C104      1.0  0.48428  0.33217  0.43297  1.0000
  C   C105      1.0  0.47516  0.28301  0.42779  1.0000
  C   C106      1.0  0.47104  0.25530  0.50533  1.0000
  C   C107      1.0  0.46944  0.20958  0.49838  1.0000
  H   H72       1.0  0.47180  0.26935  0.56765  1.0000
  H   H73       1.0  0.46924  0.19162  0.55588  1.0000
  H   H74       1.0  0.49009  0.34899  0.49421  1.0000
  C   C108      1.0  0.81554  0.28308  0.41349  1.0000
  C   C109      1.0  0.85693  0.33107  0.40496  1.0000
  H   H75       1.0  0.87341  0.35071  0.46205  1.0000
  C   C110      1.0  0.64591  0.13395  0.35455  1.0000
  C   C111      1.0  0.67443  0.15368  0.43311  1.0000
  C   C112      1.0  0.72362  0.19363  0.42780  1.0000
  C   C113      1.0  0.75141  0.21727  0.50526  1.0000
  C   C114      1.0  0.79717  0.26132  0.49814  1.0000
  H   H76       1.0  0.73737  0.20408  0.56763  1.0000
  H   H77       1.0  0.81512  0.27917  0.55560  1.0000
  H   H78       1.0  0.65768  0.14255  0.49439  1.0000
