data_image0
_chemical_formula_structural       C8HC7HCH4C4O3C5NH3NHC5NH3NHC5NH3NHC5NH3NHC5NH3NHC5NH3NHOC8HC7HCH4C4O4C8HC7HCH4C4O4C2NC3H3NHC2NC3H3NHC2NC3H3NHC2NC3H3NHC2NC3H3NHC2NC3H3NH
_chemical_formula_sum              "C120 H66 O12 N24"
_cell_length_a       38.3464
_cell_length_b       38.3464
_cell_length_c       15.0908
_cell_angle_alpha    89.9994
_cell_angle_beta     90.0006
_cell_angle_gamma    120

_space_group_name_H-M_alt    "P 1"
_space_group_IT_number       1

loop_
  _space_group_symop_operation_xyz
  'x, y, z'

loop_
  _atom_site_type_symbol
  _atom_site_label
  _atom_site_symmetry_multiplicity
  _atom_site_fract_x
  _atom_site_fract_y
  _atom_site_fract_z
  _atom_site_occupancy
  C   C1        1.0  0.01827  0.52383  0.32723  1.0000
  C   C2        1.0  0.98116  0.48652  0.32879  1.0000
  C   C3        1.0  0.98138  0.44953  0.33073  1.0000
  C   C4        1.0  0.01830  0.45009  0.32711  1.0000
  C   C5        1.0  0.05520  0.48646  0.32351  1.0000
  C   C6        1.0  0.05540  0.52366  0.32559  1.0000
  C   C7        1.0  0.94491  0.48767  0.32977  1.0000
  C   C8        1.0  0.09164  0.56106  0.32467  1.0000
  H   H1        1.0  0.01830  0.42330  0.32709  1.0000
  C   C9        1.0  0.01826  0.56122  0.32732  1.0000
  C   C10       1.0  0.98114  0.56139  0.32572  1.0000
  C   C11       1.0  0.98134  0.59860  0.32383  1.0000
  C   C12       1.0  0.01824  0.63496  0.32755  1.0000
  C   C13       1.0  0.05515  0.63551  0.33118  1.0000
  C   C14       1.0  0.05538  0.59853  0.32904  1.0000
  C   C15       1.0  0.94490  0.52399  0.32466  1.0000
  H   H2        1.0  0.01824  0.66175  0.32762  1.0000
  C   C16       1.0  0.09163  0.59738  0.32994  1.0000
  H   H3        1.0  0.91748  0.52218  0.32178  1.0000
  H   H4        1.0  0.91749  0.46205  0.33275  1.0000
  H   H5        1.0  0.11904  0.62301  0.33295  1.0000
  H   H6        1.0  0.11906  0.56287  0.32166  1.0000
  C   C17       1.0  0.09040  0.48360  0.31350  1.0000
  C   C18       1.0  0.94620  0.41146  0.34083  1.0000
  C   C19       1.0  0.94615  0.60146  0.31372  1.0000
  C   C20       1.0  0.09035  0.67357  0.34136  1.0000
  O   O1        1.0  0.09099  0.46104  0.24500  1.0000
  O   O2        1.0  0.94565  0.38834  0.40934  1.0000
  O   O3        1.0  0.09085  0.69672  0.40976  1.0000
  C   C21       1.0  0.17756  0.51557  0.27331  1.0000
  C   C22       1.0  0.21543  0.51915  0.26018  1.0000
  C   C23       1.0  0.27196  0.51326  0.32227  1.0000
  C   C24       1.0  0.34046  0.50515  0.29730  1.0000
  C   C25       1.0  0.31490  0.50153  0.22638  1.0000
  N   N1        1.0  0.28196  0.50502  0.24147  1.0000
  H   H7        1.0  0.31993  0.49471  0.16392  1.0000
  H   H8        1.0  0.16384  0.52061  0.22073  1.0000
  H   H9        1.0  0.22805  0.52597  0.19834  1.0000
  N   N2        1.0  0.37321  0.50074  0.28279  1.0000
  H   H10       1.0  0.38789  0.51138  0.22735  1.0000
  C   C26       1.0  0.54525  0.72881  0.27335  1.0000
  C   C27       1.0  0.54167  0.76310  0.26021  1.0000
  C   C28       1.0  0.54755  0.82552  0.32226  1.0000
  C   C29       1.0  0.55570  0.90214  0.29727  1.0000
  C   C30       1.0  0.55933  0.88021  0.22636  1.0000
  N   N3        1.0  0.55582  0.84376  0.24147  1.0000
  H   H11       1.0  0.56616  0.89205  0.16390  1.0000
  H   H12       1.0  0.54021  0.71005  0.22078  1.0000
  H   H13       1.0  0.53484  0.76889  0.19835  1.0000
  N   N4        1.0  0.56013  0.93931  0.28276  1.0000
  H   H14       1.0  0.54951  0.94336  0.22730  1.0000
  C   C31       1.0  0.33191  0.88336  0.27311  1.0000
  C   C32       1.0  0.29759  0.84551  0.26003  1.0000
  C   C33       1.0  0.23522  0.78897  0.32224  1.0000
  C   C34       1.0  0.15863  0.72042  0.29743  1.0000
  C   C35       1.0  0.18052  0.74597  0.22646  1.0000
  N   N5        1.0  0.21695  0.77894  0.24149  1.0000
  H   H15       1.0  0.16866  0.74092  0.16402  1.0000
  H   H16       1.0  0.35065  0.89707  0.22049  1.0000
  H   H17       1.0  0.29177  0.83289  0.19819  1.0000
  N   N6        1.0  0.12149  0.68764  0.28300  1.0000
  H   H18       1.0  0.11744  0.67297  0.22753  1.0000
  C   C36       1.0  0.85901  0.56955  0.27335  1.0000
  C   C37       1.0  0.82115  0.56599  0.26017  1.0000
  C   C38       1.0  0.76458  0.57182  0.32218  1.0000
  C   C39       1.0  0.69612  0.57999  0.29718  1.0000
  C   C40       1.0  0.72166  0.58357  0.22627  1.0000
  N   N7        1.0  0.75460  0.58009  0.24139  1.0000
  H   H19       1.0  0.71667  0.59044  0.16382  1.0000
  H   H20       1.0  0.87275  0.56452  0.22078  1.0000
  H   H21       1.0  0.80856  0.55919  0.19830  1.0000
  N   N8        1.0  0.66337  0.58441  0.28266  1.0000
  H   H22       1.0  0.64868  0.57376  0.22723  1.0000
  C   C41       1.0  0.49128  0.35629  0.27335  1.0000
  C   C42       1.0  0.49484  0.32199  0.26023  1.0000
  C   C43       1.0  0.48896  0.25958  0.32232  1.0000
  C   C44       1.0  0.48089  0.18298  0.29735  1.0000
  C   C45       1.0  0.47726  0.20492  0.22642  1.0000
  N   N9        1.0  0.48074  0.24135  0.24152  1.0000
  H   H23       1.0  0.47046  0.19308  0.16396  1.0000
  H   H24       1.0  0.49632  0.37506  0.22077  1.0000
  H   H25       1.0  0.50166  0.31620  0.19838  1.0000
  N   N10       1.0  0.47649  0.14583  0.28284  1.0000
  H   H26       1.0  0.48716  0.14181  0.22740  1.0000
  C   C46       1.0  0.70453  0.20184  0.27341  1.0000
  C   C47       1.0  0.73880  0.23971  0.26024  1.0000
  C   C48       1.0  0.80123  0.29626  0.32222  1.0000
  C   C49       1.0  0.87785  0.36473  0.29715  1.0000
  C   C50       1.0  0.85589  0.33916  0.22626  1.0000
  N   N11       1.0  0.81945  0.30622  0.24141  1.0000
  H   H27       1.0  0.86772  0.34416  0.16379  1.0000
  H   H28       1.0  0.68576  0.18810  0.22086  1.0000
  H   H29       1.0  0.74457  0.25232  0.19839  1.0000
  N   N12       1.0  0.91501  0.39746  0.28260  1.0000
  H   H30       1.0  0.91905  0.41213  0.22714  1.0000
  O   O4        1.0  0.94560  0.62406  0.24526  1.0000
  C   C51       1.0  0.53698  0.56127  0.32727  1.0000
  C   C52       1.0  0.57430  0.56147  0.32886  1.0000
  C   C53       1.0  0.61128  0.59868  0.33085  1.0000
  C   C54       1.0  0.61073  0.63503  0.32723  1.0000
  C   C55       1.0  0.57436  0.63557  0.32361  1.0000
  C   C56       1.0  0.53716  0.59857  0.32566  1.0000
  C   C57       1.0  0.57314  0.52407  0.32985  1.0000
  C   C58       1.0  0.49976  0.59740  0.32470  1.0000
  H   H31       1.0  0.63752  0.66183  0.32723  1.0000
  C   C59       1.0  0.49960  0.52388  0.32729  1.0000
  C   C60       1.0  0.49942  0.48658  0.32566  1.0000
  C   C61       1.0  0.46222  0.44958  0.32366  1.0000
  C   C62       1.0  0.42585  0.45012  0.32730  1.0000
  C   C63       1.0  0.42530  0.48647  0.33096  1.0000
  C   C64       1.0  0.46229  0.52368  0.32894  1.0000
  C   C65       1.0  0.53682  0.48774  0.32468  1.0000
  H   H32       1.0  0.39906  0.42332  0.32730  1.0000
  C   C66       1.0  0.46344  0.56108  0.32994  1.0000
  H   H33       1.0  0.53863  0.46212  0.32169  1.0000
  H   H34       1.0  0.59877  0.52227  0.33276  1.0000
  H   H35       1.0  0.43781  0.56287  0.33285  1.0000
  H   H36       1.0  0.49795  0.62302  0.32170  1.0000
  C   C67       1.0  0.57723  0.67363  0.31359  1.0000
  C   C68       1.0  0.64935  0.60155  0.34094  1.0000
  C   C69       1.0  0.45935  0.41152  0.31359  1.0000
  C   C70       1.0  0.38723  0.48359  0.34106  1.0000
  O   O5        1.0  0.59979  0.69678  0.24510  1.0000
  O   O6        1.0  0.67248  0.62413  0.40944  1.0000
  O   O7        1.0  0.43679  0.38839  0.24508  1.0000
  O   O8        1.0  0.36411  0.46101  0.40956  1.0000
  C   C71       1.0  0.49963  0.04258  0.32725  1.0000
  C   C72       1.0  0.49945  0.07970  0.32893  1.0000
  C   C73       1.0  0.46224  0.07948  0.33097  1.0000
  C   C74       1.0  0.42588  0.04257  0.32719  1.0000
  C   C75       1.0  0.42534  0.00567  0.32344  1.0000
  C   C76       1.0  0.46233  0.00545  0.32554  1.0000
  C   C77       1.0  0.53685  0.11594  0.32995  1.0000
  C   C78       1.0  0.46349  0.96921  0.32454  1.0000
  H   H37       1.0  0.39909  0.04257  0.32717  1.0000
  C   C79       1.0  0.53702  0.04257  0.32728  1.0000
  C   C80       1.0  0.57433  0.07970  0.32570  1.0000
  C   C81       1.0  0.61132  0.07948  0.32369  1.0000
  C   C82       1.0  0.61078  0.04258  0.32735  1.0000
  C   C83       1.0  0.57442  0.00567  0.33096  1.0000
  C   C84       1.0  0.53721  0.00545  0.32889  1.0000
  C   C85       1.0  0.57317  0.11594  0.32472  1.0000
  H   H38       1.0  0.63757  0.04258  0.32737  1.0000
  C   C86       1.0  0.49981  0.96921  0.32984  1.0000
  H   H39       1.0  0.59879  0.14336  0.32179  1.0000
  H   H40       1.0  0.53865  0.14336  0.33291  1.0000
  H   H41       1.0  0.49800  0.94179  0.33277  1.0000
  H   H42       1.0  0.43786  0.94179  0.32156  1.0000
  C   C87       1.0  0.38729  0.97047  0.31327  1.0000
  C   C88       1.0  0.45937  0.11467  0.34113  1.0000
  C   C89       1.0  0.64939  0.11468  0.31370  1.0000
  C   C90       1.0  0.57729  0.97048  0.34104  1.0000
  O   O9        1.0  0.36411  0.96998  0.24493  1.0000
  O   O10       1.0  0.43674  0.11517  0.40955  1.0000
  O   O11       1.0  0.67254  0.11526  0.24520  1.0000
  O   O12       1.0  0.59985  0.96991  0.40956  1.0000
  C   C91       1.0  0.15873  0.50521  0.35738  1.0000
  C   C92       1.0  0.23533  0.51330  0.33246  1.0000
  N   N13       1.0  0.21706  0.50502  0.41323  1.0000
  C   C93       1.0  0.18065  0.50159  0.42833  1.0000
  C   C94       1.0  0.29769  0.51906  0.39456  1.0000
  C   C95       1.0  0.33198  0.51548  0.38140  1.0000
  H   H43       1.0  0.29190  0.52588  0.45641  1.0000
  H   H44       1.0  0.35074  0.52051  0.43397  1.0000
  H   H45       1.0  0.16875  0.49465  0.49072  1.0000
  N   N14       1.0  0.12155  0.50076  0.37182  1.0000
  H   H46       1.0  0.11748  0.51138  0.42727  1.0000
  C   C96       1.0  0.55562  0.72035  0.35742  1.0000
  C   C97       1.0  0.54752  0.78885  0.33248  1.0000
  N   N15       1.0  0.55579  0.77887  0.41325  1.0000
  C   C98       1.0  0.55922  0.74589  0.42837  1.0000
  C   C99       1.0  0.54175  0.84545  0.39453  1.0000
  C   C100      1.0  0.54535  0.88333  0.38137  1.0000
  H   H47       1.0  0.53492  0.83285  0.45639  1.0000
  H   H48       1.0  0.54032  0.89706  0.43393  1.0000
  H   H49       1.0  0.56615  0.74092  0.49078  1.0000
  N   N16       1.0  0.56006  0.68762  0.37189  1.0000
  H   H50       1.0  0.54943  0.67293  0.42733  1.0000
  C   C101      1.0  0.34044  0.90220  0.35719  1.0000
  C   C102      1.0  0.27188  0.82562  0.33236  1.0000
  N   N17       1.0  0.28193  0.84388  0.41313  1.0000
  C   C103      1.0  0.31492  0.88029  0.42818  1.0000
  C   C104      1.0  0.21532  0.76326  0.39458  1.0000
  C   C105      1.0  0.17747  0.72894  0.38151  1.0000
  H   H51       1.0  0.22795  0.76907  0.45642  1.0000
  H   H52       1.0  0.16377  0.71020  0.43411  1.0000
  H   H53       1.0  0.31996  0.89216  0.49061  1.0000
  N   N18       1.0  0.37322  0.93934  0.37163  1.0000
  H   H54       1.0  0.38793  0.94336  0.42704  1.0000
  C   C106      1.0  0.87781  0.57987  0.35746  1.0000
  C   C107      1.0  0.80122  0.57181  0.33243  1.0000
  N   N19       1.0  0.81945  0.58005  0.41323  1.0000
  C   C108      1.0  0.85587  0.58349  0.42838  1.0000
  C   C109      1.0  0.73884  0.56602  0.39445  1.0000
  C   C110      1.0  0.70457  0.56963  0.38127  1.0000
  H   H55       1.0  0.74462  0.55920  0.45631  1.0000
  H   H56       1.0  0.68580  0.56460  0.43384  1.0000
  H   H57       1.0  0.86773  0.59034  0.49082  1.0000
  N   N20       1.0  0.91497  0.58429  0.37198  1.0000
  H   H58       1.0  0.91900  0.57362  0.42740  1.0000
  C   C111      1.0  0.48094  0.36478  0.35743  1.0000
  C   C112      1.0  0.48900  0.29625  0.33251  1.0000
  N   N21       1.0  0.48073  0.30624  0.41327  1.0000
  C   C113      1.0  0.47731  0.33923  0.42838  1.0000
  C   C114      1.0  0.49475  0.23965  0.39461  1.0000
  C   C115      1.0  0.49119  0.20179  0.38146  1.0000
  H   H59       1.0  0.50156  0.25225  0.45647  1.0000
  H   H60       1.0  0.49622  0.18805  0.43404  1.0000
  H   H61       1.0  0.47038  0.34419  0.49078  1.0000
  N   N22       1.0  0.47651  0.39752  0.37189  1.0000
  H   H62       1.0  0.48714  0.41221  0.42733  1.0000
  C   C116      1.0  0.69609  0.18301  0.35750  1.0000
  C   C117      1.0  0.76457  0.25962  0.33248  1.0000
  N   N23       1.0  0.75460  0.24138  0.41327  1.0000
  C   C118      1.0  0.72164  0.20496  0.42842  1.0000
  C   C119      1.0  0.82118  0.32201  0.39447  1.0000
  C   C120      1.0  0.85906  0.35628  0.38127  1.0000
  H   H63       1.0  0.80859  0.31623  0.45635  1.0000
  H   H64       1.0  0.87281  0.37505  0.43382  1.0000
  H   H65       1.0  0.71669  0.19307  0.49083  1.0000
  N   N24       1.0  0.66337  0.14584  0.37199  1.0000
  H   H66       1.0  0.64868  0.14178  0.42743  1.0000
