data_image0
_chemical_formula_structural       C8H5CN2HNC8H5CN2HNC2NC2HNHCHC2NC2HNHCHC2NC2HNHCHC10H6CNCN2C10H6CNCN2C2HC6H3CHC2HC6H3CHC2HC6H3CH
_chemical_formula_sum              "C84 H48 N18"
_cell_length_a       43.9125
_cell_length_b       43.9124
_cell_length_c       15.0092
_cell_angle_alpha    90
_cell_angle_beta     90
_cell_angle_gamma    120

_space_group_name_H-M_alt    "P 1"
_space_group_IT_number       1

loop_
  _space_group_symop_operation_xyz
  'x, y, z'

loop_
  _atom_site_type_symbol
  _atom_site_label
  _atom_site_symmetry_multiplicity
  _atom_site_fract_x
  _atom_site_fract_y
  _atom_site_fract_z
  _atom_site_occupancy
  C   C1        1.0  0.37113  0.63089  0.32862  1.0000
  C   C2        1.0  0.40511  0.76006  0.34376  1.0000
  C   C3        1.0  0.42282  0.79704  0.34541  1.0000
  C   C4        1.0  0.20354  0.57198  0.31568  1.0000
  C   C5        1.0  0.24052  0.59122  0.31500  1.0000
  C   C6        1.0  0.35435  0.59413  0.34370  1.0000
  C   C7        1.0  0.37361  0.57642  0.34535  1.0000
  C   C8        1.0  0.41016  0.59472  0.33004  1.0000
  H   H1        1.0  0.44934  0.81059  0.35732  1.0000
  H   H2        1.0  0.25364  0.57778  0.30411  1.0000
  H   H3        1.0  0.19106  0.54533  0.30681  1.0000
  H   H4        1.0  0.32786  0.57976  0.35514  1.0000
  H   H5        1.0  0.36066  0.54991  0.35731  1.0000
  C   C9        1.0  0.35169  0.64891  0.32823  1.0000
  N   N1        1.0  0.31593  0.63115  0.32828  1.0000
  N   N2        1.0  0.36809  0.68463  0.32827  1.0000
  H   H6        1.0  0.41948  0.74793  0.35512  1.0000
  N   N3        1.0  0.42695  0.57666  0.33473  1.0000
  C   C10       1.0  0.62859  0.36915  0.32623  1.0000
  C   C11       1.0  0.59315  0.23952  0.31379  1.0000
  C   C12       1.0  0.57500  0.20253  0.31584  1.0000
  C   C13       1.0  0.79576  0.42631  0.34331  1.0000
  C   C14       1.0  0.75880  0.40751  0.34029  1.0000
  C   C15       1.0  0.64575  0.40608  0.31387  1.0000
  C   C16       1.0  0.62692  0.42424  0.31593  1.0000
  C   C17       1.0  0.59045  0.40619  0.33232  1.0000
  H   H7        1.0  0.54832  0.18911  0.30647  1.0000
  H   H8        1.0  0.74584  0.42122  0.34937  1.0000
  H   H9        1.0  0.80843  0.45291  0.35301  1.0000
  H   H10       1.0  0.67225  0.42031  0.30246  1.0000
  H   H11       1.0  0.64019  0.45092  0.30660  1.0000
  C   C18       1.0  0.64770  0.35079  0.32481  1.0000
  N   N4        1.0  0.68345  0.36824  0.32492  1.0000
  N   N5        1.0  0.63099  0.31505  0.32494  1.0000
  H   H12       1.0  0.57892  0.25179  0.30242  1.0000
  N   N6        1.0  0.57411  0.42474  0.33289  1.0000
  C   C19       1.0  0.46746  0.55822  0.31056  1.0000
  C   C20       1.0  0.48190  0.54824  0.23996  1.0000
  N   N7        1.0  0.49446  0.52608  0.25492  1.0000
  C   C21       1.0  0.49434  0.51255  0.33644  1.0000
  C   C22       1.0  0.53410  0.45833  0.28477  1.0000
  H   H13       1.0  0.48289  0.55720  0.17653  1.0000
  N   N8        1.0  0.52094  0.48033  0.27770  1.0000
  H   H14       1.0  0.54325  0.45250  0.22842  1.0000
  C   C23       1.0  0.45482  0.58099  0.29525  1.0000
  H   H15       1.0  0.46684  0.60006  0.25043  1.0000
  C   C24       1.0  0.44101  0.90908  0.31058  1.0000
  C   C25       1.0  0.45099  0.93350  0.23996  1.0000
  N   N9        1.0  0.47314  0.96821  0.25490  1.0000
  C   C26       1.0  0.48668  0.98164  0.33641  1.0000
  C   C27       1.0  0.54090  0.07561  0.28468  1.0000
  H   H16       1.0  0.44203  0.92551  0.17653  1.0000
  N   N10       1.0  0.51890  0.04045  0.27763  1.0000
  H   H17       1.0  0.54673  0.09058  0.22830  1.0000
  C   C28       1.0  0.41825  0.87367  0.29527  1.0000
  H   H18       1.0  0.39916  0.86660  0.25053  1.0000
  C   C29       1.0  0.09016  0.53178  0.31074  1.0000
  C   C30       1.0  0.06575  0.51735  0.24009  1.0000
  N   N11       1.0  0.03103  0.50479  0.25500  1.0000
  C   C31       1.0  0.01760  0.50490  0.33650  1.0000
  C   C32       1.0  0.92364  0.46515  0.28469  1.0000
  H   H19       1.0  0.07374  0.51637  0.17667  1.0000
  N   N12       1.0  0.95879  0.47831  0.27767  1.0000
  H   H20       1.0  0.90867  0.45601  0.22831  1.0000
  C   C33       1.0  0.12557  0.54440  0.29549  1.0000
  H   H21       1.0  0.13263  0.53240  0.25063  1.0000
  C   C34       1.0  0.25915  0.62810  0.32873  1.0000
  C   C35       1.0  0.36835  0.74009  0.32869  1.0000
  C   C36       1.0  0.40451  0.81528  0.33016  1.0000
  C   C37       1.0  0.36784  0.79570  0.31563  1.0000
  C   C38       1.0  0.35009  0.75872  0.31499  1.0000
  C   C39       1.0  0.23917  0.64488  0.34386  1.0000
  C   C40       1.0  0.20220  0.62561  0.34556  1.0000
  C   C41       1.0  0.18396  0.58906  0.33034  1.0000
  C   C42       1.0  0.42725  0.63140  0.31550  1.0000
  C   C43       1.0  0.40801  0.64914  0.31485  1.0000
  H   H22       1.0  0.35368  0.80818  0.30674  1.0000
  H   H23       1.0  0.32353  0.74560  0.30414  1.0000
  H   H24       1.0  0.25130  0.67138  0.35520  1.0000
  H   H25       1.0  0.18864  0.63857  0.35751  1.0000
  H   H26       1.0  0.45389  0.64556  0.30657  1.0000
  H   H27       1.0  0.42145  0.67570  0.30399  1.0000
  C   C44       1.0  0.29662  0.64755  0.32827  1.0000
  N   N13       1.0  0.31461  0.68330  0.32831  1.0000
  C   C45       1.0  0.35032  0.70262  0.32826  1.0000
  N   N14       1.0  0.14910  0.57227  0.33499  1.0000
  N   N15       1.0  0.42258  0.85013  0.33479  1.0000
  C   C46       1.0  0.73995  0.37065  0.32614  1.0000
  C   C47       1.0  0.63008  0.25928  0.32617  1.0000
  C   C48       1.0  0.59306  0.18411  0.33214  1.0000
  C   C49       1.0  0.62992  0.20347  0.34337  1.0000
  C   C50       1.0  0.64809  0.24044  0.34034  1.0000
  C   C51       1.0  0.75972  0.35349  0.31377  1.0000
  C   C52       1.0  0.79671  0.37231  0.31584  1.0000
  C   C53       1.0  0.81512  0.40880  0.33211  1.0000
  C   C54       1.0  0.57294  0.36931  0.34346  1.0000
  C   C55       1.0  0.59173  0.35114  0.34042  1.0000
  H   H28       1.0  0.64387  0.19080  0.35308  1.0000
  H   H29       1.0  0.67475  0.25339  0.34945  1.0000
  H   H30       1.0  0.74745  0.32698  0.30243  1.0000
  H   H31       1.0  0.81012  0.35906  0.30648  1.0000
  H   H32       1.0  0.54633  0.35537  0.35321  1.0000
  H   H33       1.0  0.57802  0.32448  0.34948  1.0000
  C   C56       1.0  0.70247  0.35154  0.32476  1.0000
  N   N16       1.0  0.68418  0.31579  0.32490  1.0000
  C   C57       1.0  0.64845  0.29676  0.32479  1.0000
  N   N17       1.0  0.85001  0.42513  0.33273  1.0000
  N   N18       1.0  0.57451  0.14922  0.33274  1.0000
  C   C58       1.0  0.48051  0.52183  0.41051  1.0000
  C   C59       1.0  0.46714  0.54475  0.39646  1.0000
  H   H34       1.0  0.45729  0.55184  0.44940  1.0000
  C   C60       1.0  0.50775  0.48955  0.34797  1.0000
  C   C61       1.0  0.53458  0.44356  0.36811  1.0000
  C   C62       1.0  0.52084  0.45247  0.44252  1.0000
  C   C63       1.0  0.50744  0.47562  0.43363  1.0000
  C   C64       1.0  0.49380  0.48510  0.50696  1.0000
  C   C65       1.0  0.48046  0.50803  0.49551  1.0000
  H   H35       1.0  0.49339  0.47533  0.56914  1.0000
  H   H36       1.0  0.47062  0.51447  0.54960  1.0000
  H   H37       1.0  0.52075  0.44219  0.50391  1.0000
  C   C66       1.0  0.54722  0.42048  0.37730  1.0000
  H   H38       1.0  0.53597  0.40110  0.42167  1.0000
  C   C67       1.0  0.47740  0.95854  0.41051  1.0000
  C   C68       1.0  0.45448  0.92224  0.39648  1.0000
  H   H39       1.0  0.44739  0.90530  0.44943  1.0000
  C   C69       1.0  0.50968  0.01805  0.34792  1.0000
  C   C70       1.0  0.55567  0.09087  0.36800  1.0000
  C   C71       1.0  0.54676  0.06823  0.44244  1.0000
  C   C72       1.0  0.52361  0.03168  0.43357  1.0000
  C   C73       1.0  0.51413  0.00857  0.50692  1.0000
  C   C74       1.0  0.49119  0.97229  0.49550  1.0000
  H   H40       1.0  0.52389  0.01794  0.56910  1.0000
  H   H41       1.0  0.48476  0.95602  0.54960  1.0000
  H   H42       1.0  0.55704  0.07842  0.50382  1.0000
  C   C75       1.0  0.57877  0.12659  0.37716  1.0000
  H   H43       1.0  0.59813  0.13472  0.42156  1.0000
  C   C76       1.0  0.04069  0.51872  0.41061  1.0000
  C   C77       1.0  0.07699  0.53209  0.39661  1.0000
  H   H44       1.0  0.09392  0.54192  0.44958  1.0000
  C   C78       1.0  0.98118  0.49149  0.34797  1.0000
  C   C79       1.0  0.90836  0.46466  0.36801  1.0000
  C   C80       1.0  0.93100  0.47840  0.44246  1.0000
  C   C81       1.0  0.96754  0.49179  0.43361  1.0000
  C   C82       1.0  0.99065  0.50542  0.50698  1.0000
  C   C83       1.0  0.02693  0.51876  0.49558  1.0000
  H   H45       1.0  0.98127  0.50582  0.56916  1.0000
  H   H46       1.0  0.04319  0.52859  0.54970  1.0000
  H   H47       1.0  0.92079  0.47848  0.50383  1.0000
  C   C84       1.0  0.87264  0.45203  0.37715  1.0000
  H   H48       1.0  0.86451  0.46328  0.42150  1.0000
