data_image0
_chemical_formula_structural       C9H8C2NC2N3C15H4CNC2NCNC2NC12H8C2NC2N3C15H4CNC2NCNC2NC12H8C2NC2N3C15H4CNC2NCNC2NC12H8C2NC2N3C15H4CNC2NCNC2NC3
_chemical_formula_sum              "C148 H48 N32"
_cell_length_a       25.1948
_cell_length_b       25.1948
_cell_length_c       14.9371
_cell_angle_alpha    90
_cell_angle_beta     90
_cell_angle_gamma    89.9977

_space_group_name_H-M_alt    "P 1"
_space_group_IT_number       1

loop_
  _space_group_symop_operation_xyz
  'x, y, z'

loop_
  _atom_site_type_symbol
  _atom_site_label
  _atom_site_symmetry_multiplicity
  _atom_site_fract_x
  _atom_site_fract_y
  _atom_site_fract_z
  _atom_site_occupancy
  C   C1        1.0  0.00512  0.47653  0.29256  1.0000
  C   C2        1.0  0.00519  0.03196  0.29363  1.0000
  C   C3        1.0  0.00142  0.14224  0.33199  1.0000
  C   C4        1.0  0.00327  0.12340  0.24250  1.0000
  C   C5        1.0  0.00541  0.06886  0.22321  1.0000
  C   C6        1.0  0.00586  0.44077  0.22052  1.0000
  C   C7        1.0  0.00334  0.38598  0.23746  1.0000
  C   C8        1.0  0.99905  0.36587  0.32592  1.0000
  C   C9        1.0  0.44092  0.50566  0.00038  1.0000
  H   H1        1.0  0.14958  0.00327  0.03110  1.0000
  H   H2        1.0  0.05695  0.00643  0.06250  1.0000
  H   H3        1.0  0.45400  0.50732  0.06463  1.0000
  H   H4        1.0  0.36091  0.50401  0.03715  1.0000
  H   H5        1.0  0.00337  0.14944  0.18984  1.0000
  H   H6        1.0  0.00655  0.05681  0.15841  1.0000
  H   H7        1.0  0.00751  0.45384  0.15628  1.0000
  H   H8        1.0  0.00420  0.36076  0.18375  1.0000
  C   C10       1.0  0.49325  0.30997  0.33905  1.0000
  C   C11       1.0  0.99754  0.19817  0.34642  1.0000
  N   N1        1.0  0.96154  0.22463  0.29536  1.0000
  C   C12       1.0  0.45679  0.27807  0.29047  1.0000
  C   C13       1.0  0.41923  0.29611  0.23894  1.0000
  N   N2        1.0  0.38623  0.31206  0.19323  1.0000
  N   N3        1.0  0.31220  0.88605  0.02768  1.0000
  N   N4        1.0  0.19356  0.60216  0.39359  1.0000
  C   C14       1.0  0.00330  0.45774  0.38064  1.0000
  C   C15       1.0  0.00349  0.04941  0.38241  1.0000
  C   C16       1.0  0.00211  0.10438  0.40239  1.0000
  C   C17       1.0  0.00081  0.40249  0.39811  1.0000
  C   C18       1.0  0.04957  0.00334  0.50516  1.0000
  C   C19       1.0  0.03212  0.00502  0.59394  1.0000
  C   C20       1.0  0.47668  0.50494  0.59500  1.0000
  C   C21       1.0  0.45790  0.50314  0.50693  1.0000
  C   C22       1.0  0.38614  0.50315  0.65011  1.0000
  C   C23       1.0  0.36603  0.49884  0.56164  1.0000
  C   C24       1.0  0.40266  0.50057  0.48946  1.0000
  C   C25       1.0  0.10455  0.00202  0.48520  1.0000
  C   C26       1.0  0.14239  0.00129  0.55561  1.0000
  C   C27       1.0  0.12354  0.00315  0.64509  1.0000
  C   C28       1.0  0.06901  0.00528  0.66437  1.0000
  H   H9        1.0  0.38961  0.49786  0.42477  1.0000
  H   H10       1.0  0.11656  0.99974  0.41992  1.0000
  H   H11       1.0  0.99992  0.11639  0.46768  1.0000
  H   H12       1.0  0.99805  0.38945  0.46279  1.0000
  C   C29       1.0  0.00333  0.00317  0.44378  1.0000
  N   N5        1.0  0.02865  0.28375  0.39211  1.0000
  C   C30       1.0  0.03154  0.22989  0.40009  1.0000
  C   C31       1.0  0.06930  0.21062  0.44968  1.0000
  N   N6        1.0  0.10245  0.19339  0.49373  1.0000
  C   C32       1.0  0.19833  0.49743  0.54126  1.0000
  N   N7        1.0  0.22478  0.46140  0.59227  1.0000
  C   C33       1.0  0.27822  0.45662  0.59713  1.0000
  C   C34       1.0  0.31013  0.49306  0.54852  1.0000
  N   N8        1.0  0.28392  0.52846  0.49543  1.0000
  C   C35       1.0  0.23006  0.53138  0.48751  1.0000
  C   C36       1.0  0.21079  0.56908  0.43777  1.0000
  C   C37       1.0  0.29625  0.91906  0.64866  1.0000
  C   C38       1.0  0.00512  0.97653  0.29256  1.0000
  C   C39       1.0  0.00519  0.53196  0.29363  1.0000
  C   C40       1.0  0.00141  0.64224  0.33199  1.0000
  C   C41       1.0  0.00327  0.62339  0.24250  1.0000
  C   C42       1.0  0.00541  0.56887  0.22321  1.0000
  C   C43       1.0  0.00586  0.94076  0.22052  1.0000
  C   C44       1.0  0.00334  0.88598  0.23746  1.0000
  C   C45       1.0  0.99905  0.86587  0.32592  1.0000
  C   C46       1.0  0.44092  0.00566  0.00038  1.0000
  H   H13       1.0  0.14958  0.50327  0.03110  1.0000
  H   H14       1.0  0.05695  0.50643  0.06250  1.0000
  H   H15       1.0  0.45400  0.00732  0.06463  1.0000
  H   H16       1.0  0.36091  0.00401  0.03715  1.0000
  H   H17       1.0  0.00337  0.64944  0.18984  1.0000
  H   H18       1.0  0.00655  0.55681  0.15841  1.0000
  H   H19       1.0  0.00751  0.95384  0.15627  1.0000
  H   H20       1.0  0.00420  0.86076  0.18375  1.0000
  C   C47       1.0  0.49325  0.80997  0.33905  1.0000
  C   C48       1.0  0.99754  0.69817  0.34642  1.0000
  N   N9        1.0  0.96154  0.72463  0.29536  1.0000
  C   C49       1.0  0.45679  0.77807  0.29047  1.0000
  C   C50       1.0  0.41923  0.79611  0.23894  1.0000
  N   N10       1.0  0.38623  0.81206  0.19323  1.0000
  N   N11       1.0  0.31220  0.38605  0.02768  1.0000
  N   N12       1.0  0.19356  0.10217  0.39359  1.0000
  C   C51       1.0  0.00330  0.95774  0.38064  1.0000
  C   C52       1.0  0.00349  0.54941  0.38241  1.0000
  C   C53       1.0  0.00211  0.60439  0.40239  1.0000
  C   C54       1.0  0.00081  0.90250  0.39811  1.0000
  C   C55       1.0  0.04957  0.50334  0.50516  1.0000
  C   C56       1.0  0.03211  0.50502  0.59394  1.0000
  C   C57       1.0  0.47668  0.00495  0.59500  1.0000
  C   C58       1.0  0.45790  0.00314  0.50693  1.0000
  C   C59       1.0  0.38614  0.00315  0.65011  1.0000
  C   C60       1.0  0.36603  0.99884  0.56164  1.0000
  C   C61       1.0  0.40266  0.00058  0.48945  1.0000
  C   C62       1.0  0.10455  0.50202  0.48520  1.0000
  C   C63       1.0  0.14239  0.50129  0.55561  1.0000
  C   C64       1.0  0.12354  0.50316  0.64509  1.0000
  C   C65       1.0  0.06901  0.50528  0.66437  1.0000
  H   H21       1.0  0.38961  0.99786  0.42477  1.0000
  H   H22       1.0  0.11656  0.49975  0.41992  1.0000
  H   H23       1.0  0.99992  0.61639  0.46768  1.0000
  H   H24       1.0  0.99805  0.88945  0.46279  1.0000
  C   C66       1.0  0.00333  0.50317  0.44378  1.0000
  N   N13       1.0  0.02865  0.78375  0.39211  1.0000
  C   C67       1.0  0.03154  0.72988  0.40009  1.0000
  C   C68       1.0  0.06930  0.71062  0.44968  1.0000
  N   N14       1.0  0.10245  0.69339  0.49373  1.0000
  C   C69       1.0  0.19833  0.99743  0.54126  1.0000
  N   N15       1.0  0.22478  0.96140  0.59227  1.0000
  C   C70       1.0  0.27822  0.95662  0.59713  1.0000
  C   C71       1.0  0.31013  0.99306  0.54852  1.0000
  N   N16       1.0  0.28392  0.02846  0.49543  1.0000
  C   C72       1.0  0.23006  0.03138  0.48751  1.0000
  C   C73       1.0  0.21079  0.06908  0.43777  1.0000
  C   C74       1.0  0.29625  0.41906  0.64866  1.0000
  C   C75       1.0  0.50512  0.47653  0.29256  1.0000
  C   C76       1.0  0.50519  0.03196  0.29363  1.0000
  C   C77       1.0  0.50142  0.14224  0.33199  1.0000
  C   C78       1.0  0.50327  0.12340  0.24250  1.0000
  C   C79       1.0  0.50541  0.06886  0.22321  1.0000
  C   C80       1.0  0.50586  0.44077  0.22052  1.0000
  C   C81       1.0  0.50335  0.38598  0.23746  1.0000
  C   C82       1.0  0.49905  0.36587  0.32592  1.0000
  C   C83       1.0  0.94092  0.50566  0.00038  1.0000
  H   H25       1.0  0.64958  0.00327  0.03110  1.0000
  H   H26       1.0  0.55695  0.00643  0.06250  1.0000
  H   H27       1.0  0.95400  0.50732  0.06463  1.0000
  H   H28       1.0  0.86091  0.50401  0.03715  1.0000
  H   H29       1.0  0.50338  0.14944  0.18984  1.0000
  H   H30       1.0  0.50655  0.05681  0.15841  1.0000
  H   H31       1.0  0.50752  0.45384  0.15628  1.0000
  H   H32       1.0  0.50420  0.36076  0.18375  1.0000
  C   C84       1.0  0.99325  0.30997  0.33905  1.0000
  C   C85       1.0  0.49754  0.19817  0.34642  1.0000
  N   N17       1.0  0.46154  0.22463  0.29536  1.0000
  C   C86       1.0  0.95679  0.27807  0.29047  1.0000
  C   C87       1.0  0.91923  0.29611  0.23894  1.0000
  N   N18       1.0  0.88624  0.31206  0.19323  1.0000
  N   N19       1.0  0.81220  0.88605  0.02768  1.0000
  N   N20       1.0  0.69356  0.60216  0.39359  1.0000
  C   C88       1.0  0.50330  0.45774  0.38064  1.0000
  C   C89       1.0  0.50349  0.04941  0.38241  1.0000
  C   C90       1.0  0.50211  0.10438  0.40239  1.0000
  C   C91       1.0  0.50080  0.40249  0.39811  1.0000
  C   C92       1.0  0.54957  0.00334  0.50516  1.0000
  C   C93       1.0  0.53212  0.00502  0.59394  1.0000
  C   C94       1.0  0.97669  0.50494  0.59500  1.0000
  C   C95       1.0  0.95790  0.50314  0.50693  1.0000
  C   C96       1.0  0.88614  0.50315  0.65011  1.0000
  C   C97       1.0  0.86603  0.49884  0.56164  1.0000
  C   C98       1.0  0.90266  0.50057  0.48946  1.0000
  C   C99       1.0  0.60455  0.00202  0.48520  1.0000
  C   C100      1.0  0.64240  0.00129  0.55561  1.0000
  C   C101      1.0  0.62354  0.00315  0.64509  1.0000
  C   C102      1.0  0.56901  0.00528  0.66437  1.0000
  H   H33       1.0  0.88962  0.49786  0.42477  1.0000
  H   H34       1.0  0.61656  0.99974  0.41992  1.0000
  H   H35       1.0  0.49992  0.11639  0.46768  1.0000
  H   H36       1.0  0.49805  0.38945  0.46279  1.0000
  C   C103      1.0  0.50333  0.00317  0.44378  1.0000
  N   N21       1.0  0.52865  0.28375  0.39211  1.0000
  C   C104      1.0  0.53154  0.22989  0.40009  1.0000
  C   C105      1.0  0.56930  0.21062  0.44968  1.0000
  N   N22       1.0  0.60245  0.19339  0.49373  1.0000
  C   C106      1.0  0.69833  0.49743  0.54126  1.0000
  N   N23       1.0  0.72479  0.46140  0.59227  1.0000
  C   C107      1.0  0.77822  0.45662  0.59713  1.0000
  C   C108      1.0  0.81013  0.49306  0.54852  1.0000
  N   N24       1.0  0.78392  0.52846  0.49543  1.0000
  C   C109      1.0  0.73005  0.53138  0.48751  1.0000
  C   C110      1.0  0.71079  0.56908  0.43777  1.0000
  C   C111      1.0  0.79625  0.91906  0.64866  1.0000
  C   C112      1.0  0.50512  0.97653  0.29256  1.0000
  C   C113      1.0  0.50519  0.53196  0.29363  1.0000
  C   C114      1.0  0.50142  0.64224  0.33199  1.0000
  C   C115      1.0  0.50327  0.62339  0.24250  1.0000
  C   C116      1.0  0.50541  0.56887  0.22321  1.0000
  C   C117      1.0  0.50586  0.94076  0.22052  1.0000
  C   C118      1.0  0.50335  0.88598  0.23746  1.0000
  C   C119      1.0  0.49905  0.86587  0.32592  1.0000
  C   C120      1.0  0.94092  0.00566  0.00038  1.0000
  H   H37       1.0  0.64958  0.50327  0.03110  1.0000
  H   H38       1.0  0.55695  0.50643  0.06250  1.0000
  H   H39       1.0  0.95400  0.00732  0.06463  1.0000
  H   H40       1.0  0.86091  0.00401  0.03715  1.0000
  H   H41       1.0  0.50338  0.64944  0.18984  1.0000
  H   H42       1.0  0.50655  0.55681  0.15841  1.0000
  H   H43       1.0  0.50752  0.95384  0.15627  1.0000
  H   H44       1.0  0.50420  0.86076  0.18375  1.0000
  C   C121      1.0  0.99325  0.80997  0.33905  1.0000
  C   C122      1.0  0.49754  0.69817  0.34642  1.0000
  N   N25       1.0  0.46154  0.72463  0.29536  1.0000
  C   C123      1.0  0.95679  0.77807  0.29047  1.0000
  C   C124      1.0  0.91923  0.79611  0.23894  1.0000
  N   N26       1.0  0.88624  0.81206  0.19323  1.0000
  N   N27       1.0  0.81220  0.38605  0.02768  1.0000
  N   N28       1.0  0.69356  0.10217  0.39359  1.0000
  C   C125      1.0  0.50330  0.95774  0.38064  1.0000
  C   C126      1.0  0.50349  0.54941  0.38241  1.0000
  C   C127      1.0  0.50211  0.60439  0.40239  1.0000
  C   C128      1.0  0.50080  0.90250  0.39811  1.0000
  C   C129      1.0  0.54957  0.50334  0.50516  1.0000
  C   C130      1.0  0.53212  0.50502  0.59394  1.0000
  C   C131      1.0  0.97668  0.00495  0.59500  1.0000
  C   C132      1.0  0.95790  0.00314  0.50693  1.0000
  C   C133      1.0  0.88614  0.00315  0.65011  1.0000
  C   C134      1.0  0.86603  0.99884  0.56164  1.0000
  C   C135      1.0  0.90266  0.00058  0.48945  1.0000
  C   C136      1.0  0.60455  0.50202  0.48520  1.0000
  C   C137      1.0  0.64240  0.50129  0.55561  1.0000
  C   C138      1.0  0.62354  0.50316  0.64509  1.0000
  C   C139      1.0  0.56901  0.50528  0.66437  1.0000
  H   H45       1.0  0.88962  0.99786  0.42477  1.0000
  H   H46       1.0  0.61656  0.49975  0.41992  1.0000
  H   H47       1.0  0.49992  0.61639  0.46768  1.0000
  H   H48       1.0  0.49805  0.88945  0.46279  1.0000
  C   C140      1.0  0.50333  0.50317  0.44378  1.0000
  N   N29       1.0  0.52865  0.78375  0.39211  1.0000
  C   C141      1.0  0.53154  0.72988  0.40009  1.0000
  C   C142      1.0  0.56930  0.71062  0.44968  1.0000
  N   N30       1.0  0.60245  0.69339  0.49373  1.0000
  C   C143      1.0  0.69833  0.99743  0.54126  1.0000
  N   N31       1.0  0.72479  0.96140  0.59227  1.0000
  C   C144      1.0  0.77822  0.95662  0.59713  1.0000
  C   C145      1.0  0.81013  0.99306  0.54852  1.0000
  N   N32       1.0  0.78392  0.02846  0.49543  1.0000
  C   C146      1.0  0.73005  0.03138  0.48751  1.0000
  C   C147      1.0  0.71079  0.06908  0.43777  1.0000
  C   C148      1.0  0.79625  0.41906  0.64866  1.0000
