data_image0
_chemical_formula_structural       C14H12C7NC12H12C2NC3NC3NC15H14NCHNCHNCHNCHNCHNCHC3NC2NC5NC3NC17H14CNC2NC4NC18H14C2NC19H12C2NC2O2HC2NC2O2HC2NC2O2HC2NC2O2HC2NC2O2HC2NC2O2H
_chemical_formula_sum              "C162 H90 N24 O12"
_cell_length_a       41.6378
_cell_length_b       41.6378
_cell_length_c       14.987
_cell_angle_alpha    90.0374
_cell_angle_beta     89.9626
_cell_angle_gamma    120

_space_group_name_H-M_alt    "P 1"
_space_group_IT_number       1

loop_
  _space_group_symop_operation_xyz
  'x, y, z'

loop_
  _atom_site_type_symbol
  _atom_site_label
  _atom_site_symmetry_multiplicity
  _atom_site_fract_x
  _atom_site_fract_y
  _atom_site_fract_z
  _atom_site_occupancy
  C   C1        1.0  0.95064  0.54959  0.32660  1.0000
  C   C2        1.0  0.09949  0.53705  0.33200  1.0000
  C   C3        1.0  0.11177  0.57551  0.32627  1.0000
  C   C4        1.0  0.14877  0.63721  0.31711  1.0000
  C   C5        1.0  0.14844  0.60394  0.31540  1.0000
  C   C6        1.0  0.16691  0.75444  0.27087  1.0000
  C   C7        1.0  0.13686  0.71787  0.26849  1.0000
  C   C8        1.0  0.12727  0.52665  0.33261  1.0000
  C   C9        1.0  0.17091  0.51426  0.25162  1.0000
  C   C10       1.0  0.14035  0.51999  0.25181  1.0000
  C   C11       1.0  0.92583  0.40720  0.26844  1.0000
  C   C12       1.0  0.89591  0.37055  0.27076  1.0000
  C   C13       1.0  0.92203  0.60504  0.25190  1.0000
  C   C14       1.0  0.89133  0.61056  0.25169  1.0000
  H   H1        1.0  0.88253  0.61492  0.19163  1.0000
  H   H2        1.0  0.93394  0.60461  0.19245  1.0000
  H   H3        1.0  0.99681  0.66605  0.36293  1.0000
  H   H4        1.0  0.94129  0.41679  0.21136  1.0000
  H   H5        1.0  0.89071  0.35431  0.21530  1.0000
  H   H6        1.0  0.06560  0.45915  0.36391  1.0000
  H   H7        1.0  0.17208  0.66264  0.31072  1.0000
  H   H8        1.0  0.17148  0.60139  0.30821  1.0000
  H   H9        1.0  0.12850  0.52047  0.19235  1.0000
  H   H10       1.0  0.17968  0.50980  0.19157  1.0000
  H   H11       1.0  0.12147  0.70831  0.21133  1.0000
  H   H12       1.0  0.17230  0.77065  0.21530  1.0000
  C   C15       1.0  0.43930  0.45167  0.35576  1.0000
  C   C16       1.0  0.44594  0.50855  0.34336  1.0000
  C   C17       1.0  0.54358  0.49381  0.32594  1.0000
  C   C18       1.0  0.61532  0.61429  0.34296  1.0000
  C   C19       1.0  0.62197  0.67119  0.35519  1.0000
  C   C20       1.0  0.55613  0.65521  0.33160  1.0000
  C   C21       1.0  0.51767  0.62901  0.32605  1.0000
  N   N1        1.0  0.50098  0.59176  0.33424  1.0000
  C   C22       1.0  0.45597  0.60429  0.31663  1.0000
  C   C23       1.0  0.48924  0.63723  0.31496  1.0000
  C   C24       1.0  0.33872  0.50516  0.27095  1.0000
  C   C25       1.0  0.37528  0.51163  0.26855  1.0000
  C   C26       1.0  0.56651  0.69337  0.33221  1.0000
  C   C27       1.0  0.57811  0.76705  0.33143  1.0000
  C   C28       1.0  0.57900  0.74941  0.25124  1.0000
  C   C29       1.0  0.57322  0.71310  0.25143  1.0000
  C   C30       1.0  0.68599  0.61130  0.26830  1.0000
  C   C31       1.0  0.72262  0.61800  0.27072  1.0000
  C   C32       1.0  0.48813  0.40972  0.25150  1.0000
  C   C33       1.0  0.48261  0.37351  0.25128  1.0000
  H   H13       1.0  0.47823  0.36031  0.19122  1.0000
  H   H14       1.0  0.48856  0.42204  0.19205  1.0000
  H   H15       1.0  0.42721  0.42360  0.36360  1.0000
  H   H16       1.0  0.67644  0.61718  0.21120  1.0000
  H   H17       1.0  0.73889  0.62899  0.21529  1.0000
  H   H18       1.0  0.63406  0.69926  0.36314  1.0000
  H   H19       1.0  0.43053  0.60214  0.31000  1.0000
  H   H20       1.0  0.49178  0.66280  0.30745  1.0000
  H   H21       1.0  0.57280  0.70075  0.19199  1.0000
  H   H22       1.0  0.58350  0.76262  0.19119  1.0000
  H   H23       1.0  0.38482  0.50577  0.21135  1.0000
  H   H24       1.0  0.32248  0.49429  0.21544  1.0000
  C   C34       1.0  0.64159  0.08043  0.35468  1.0000
  C   C35       1.0  0.58468  0.03017  0.34268  1.0000
  N   N2        1.0  0.58266  0.06149  0.33329  1.0000
  C   C36       1.0  0.62559  0.13028  0.33140  1.0000
  C   C37       1.0  0.59940  0.14256  0.32581  1.0000
  C   C38       1.0  0.47889  0.09382  0.34244  1.0000
  N   N3        1.0  0.48091  0.06249  0.33303  1.0000
  C   C39       1.0  0.42198  0.04357  0.35439  1.0000
  C   C40       1.0  0.43799  0.99369  0.33156  1.0000
  C   C41       1.0  0.46418  0.98140  0.32618  1.0000
  N   N4        1.0  0.50145  0.00199  0.33410  1.0000
  C   C42       1.0  0.48890  0.94441  0.31695  1.0000
  C   C43       1.0  0.45595  0.94474  0.31535  1.0000
  C   C44       1.0  0.56575  0.96430  0.34232  1.0000
  C   C45       1.0  0.57909  0.90342  0.34691  1.0000
  C   C46       1.0  0.58802  0.92630  0.27044  1.0000
  C   C47       1.0  0.58151  0.95636  0.26808  1.0000
  C   C48       1.0  0.39982  0.96590  0.33222  1.0000
  C   C49       1.0  0.32615  0.90382  0.33161  1.0000
  C   C50       1.0  0.34379  0.92226  0.25136  1.0000
  C   C51       1.0  0.38007  0.95283  0.25147  1.0000
  C   C52       1.0  0.48196  0.16748  0.26783  1.0000
  C   C53       1.0  0.47523  0.19740  0.27027  1.0000
  C   C54       1.0  0.68351  0.17121  0.25135  1.0000
  C   C55       1.0  0.73726  0.22045  0.33147  1.0000
  C   C56       1.0  0.71973  0.20189  0.25123  1.0000
  H   H25       1.0  0.73295  0.21070  0.19121  1.0000
  H   H26       1.0  0.67121  0.15932  0.19187  1.0000
  H   H27       1.0  0.66966  0.09640  0.36252  1.0000
  H   H28       1.0  0.56033  0.06159  0.31715  1.0000
  H   H29       1.0  0.50328  0.06236  0.31745  1.0000
  H   H30       1.0  0.47612  0.15205  0.21071  1.0000
  H   H31       1.0  0.46428  0.20266  0.21478  1.0000
  H   H32       1.0  0.39391  0.02760  0.36235  1.0000
  H   H33       1.0  0.49104  0.92112  0.31042  1.0000
  H   H34       1.0  0.43037  0.92170  0.30800  1.0000
  H   H35       1.0  0.39243  0.96465  0.19198  1.0000
  H   H36       1.0  0.33057  0.91347  0.19133  1.0000
  H   H37       1.0  0.58735  0.97173  0.21090  1.0000
  H   H38       1.0  0.59887  0.92091  0.21489  1.0000
  N   N5        1.0  0.27974  0.52298  0.27125  1.0000
  C   C57       1.0  0.24787  0.52386  0.26115  1.0000
  H   H39       1.0  0.24412  0.53470  0.20366  1.0000
  N   N6        1.0  0.57031  0.84954  0.27079  1.0000
  C   C58       1.0  0.56946  0.81679  0.26065  1.0000
  H   H40       1.0  0.55850  0.80212  0.20329  1.0000
  N   N7        1.0  0.24368  0.81346  0.27115  1.0000
  C   C59       1.0  0.27643  0.84533  0.26098  1.0000
  H   H41       1.0  0.29108  0.84901  0.20358  1.0000
  N   N8        1.0  0.78206  0.60083  0.27106  1.0000
  C   C60       1.0  0.81411  0.60029  0.26102  1.0000
  H   H42       1.0  0.81805  0.58958  0.20348  1.0000
  N   N9        1.0  0.49232  0.27396  0.27068  1.0000
  C   C61       1.0  0.49282  0.30653  0.26057  1.0000
  H   H43       1.0  0.50366  0.32121  0.20317  1.0000
  N   N10       1.0  0.81933  0.31109  0.27088  1.0000
  C   C62       1.0  0.78674  0.27905  0.26071  1.0000
  H   H44       1.0  0.77212  0.27519  0.20322  1.0000
  C   C63       1.0  0.01279  0.65396  0.35495  1.0000
  C   C64       1.0  0.05107  0.67282  0.35728  1.0000
  C   C65       1.0  0.06304  0.64729  0.34302  1.0000
  N   N11       1.0  0.03172  0.61395  0.33358  1.0000
  C   C66       1.0  0.00059  0.61646  0.34015  1.0000
  C   C67       1.0  0.96292  0.58807  0.33208  1.0000
  N   N12       1.0  0.97121  0.53290  0.33458  1.0000
  C   C68       1.0  0.95008  0.49559  0.32950  1.0000
  C   C69       1.0  0.91365  0.48789  0.31717  1.0000
  C   C70       1.0  0.91398  0.52116  0.31561  1.0000
  C   C71       1.0  0.96173  0.46896  0.33771  1.0000
  C   C72       1.0  0.99938  0.47786  0.34334  1.0000
  N   N13       1.0  0.03070  0.51122  0.33401  1.0000
  C   C73       1.0  0.06182  0.50869  0.34055  1.0000
  C   C74       1.0  0.04963  0.47124  0.35588  1.0000
  C   C75       1.0  0.01135  0.45237  0.35816  1.0000
  N   N14       1.0  0.09120  0.59220  0.33439  1.0000
  C   C76       1.0  0.11233  0.62952  0.32935  1.0000
  C   C77       1.0  0.10070  0.65615  0.33775  1.0000
  C   C78       1.0  0.12892  0.69420  0.34274  1.0000
  C   C79       1.0  0.15134  0.70805  0.41967  1.0000
  C   C80       1.0  0.18151  0.74452  0.42155  1.0000
  C   C81       1.0  0.18981  0.76842  0.34731  1.0000
  C   C82       1.0  0.14460  0.52644  0.41326  1.0000
  C   C83       1.0  0.17501  0.52049  0.41276  1.0000
  C   C84       1.0  0.18937  0.51510  0.33184  1.0000
  C   C85       1.0  0.93352  0.43090  0.34257  1.0000
  C   C86       1.0  0.87294  0.35651  0.34711  1.0000
  C   C87       1.0  0.88098  0.38047  0.42120  1.0000
  C   C88       1.0  0.91100  0.41702  0.41935  1.0000
  C   C89       1.0  0.93512  0.59843  0.33269  1.0000
  C   C90       1.0  0.91768  0.59854  0.41333  1.0000
  C   C91       1.0  0.88715  0.60431  0.41282  1.0000
  C   C92       1.0  0.87274  0.60955  0.33187  1.0000
  H   H45       1.0  0.87438  0.60266  0.47238  1.0000
  H   H46       1.0  0.92622  0.59307  0.47260  1.0000
  H   H47       1.0  0.06720  0.70077  0.36701  1.0000
  H   H48       1.0  0.03159  0.59145  0.31806  1.0000
  H   H49       1.0  0.03082  0.53357  0.31696  1.0000
  H   H50       1.0  0.89095  0.52370  0.30827  1.0000
  H   H51       1.0  0.89036  0.46246  0.31058  1.0000
  H   H52       1.0  0.91546  0.43389  0.47320  1.0000
  H   H53       1.0  0.86406  0.37216  0.47600  1.0000
  H   H54       1.0  0.99522  0.42443  0.36798  1.0000
  H   H55       1.0  0.13603  0.53190  0.47255  1.0000
  H   H56       1.0  0.18764  0.52193  0.47238  1.0000
  H   H57       1.0  0.19840  0.75275  0.47635  1.0000
  H   H58       1.0  0.14677  0.69116  0.47352  1.0000
  C   C93       1.0  0.42045  0.47110  0.35824  1.0000
  N   N15       1.0  0.47929  0.51058  0.33394  1.0000
  C   C94       1.0  0.47676  0.47693  0.34043  1.0000
  C   C95       1.0  0.50511  0.46762  0.33168  1.0000
  N   N16       1.0  0.56027  0.53107  0.33420  1.0000
  C   C96       1.0  0.59759  0.54726  0.32910  1.0000
  C   C97       1.0  0.60528  0.51853  0.31657  1.0000
  C   C98       1.0  0.57201  0.48559  0.31487  1.0000
  C   C99       1.0  0.62421  0.58552  0.33748  1.0000
  N   N17       1.0  0.58198  0.61227  0.33353  1.0000
  C   C100      1.0  0.58450  0.64591  0.34007  1.0000
  C   C101      1.0  0.64082  0.65176  0.35768  1.0000
  C   C102      1.0  0.46366  0.57557  0.32913  1.0000
  C   C103      1.0  0.43704  0.53730  0.33761  1.0000
  C   C104      1.0  0.39899  0.52747  0.34267  1.0000
  C   C105      1.0  0.38519  0.53614  0.41958  1.0000
  C   C106      1.0  0.34872  0.52985  0.42154  1.0000
  C   C107      1.0  0.32478  0.51416  0.34739  1.0000
  C   C108      1.0  0.56668  0.71095  0.41286  1.0000
  C   C109      1.0  0.57266  0.74732  0.41236  1.0000
  C   C110      1.0  0.66226  0.59537  0.34240  1.0000
  C   C111      1.0  0.73663  0.60911  0.34715  1.0000
  C   C112      1.0  0.71265  0.59328  0.42123  1.0000
  C   C113      1.0  0.67611  0.58677  0.41926  1.0000
  C   C114      1.0  0.49474  0.42946  0.33229  1.0000
  C   C115      1.0  0.49467  0.41196  0.41291  1.0000
  C   C116      1.0  0.48889  0.37566  0.41240  1.0000
  C   C117      1.0  0.48363  0.35596  0.33145  1.0000
  H   H59       1.0  0.49051  0.36455  0.47197  1.0000
  H   H60       1.0  0.50011  0.42598  0.47219  1.0000
  H   H61       1.0  0.39249  0.45927  0.36774  1.0000
  H   H62       1.0  0.50164  0.53281  0.31681  1.0000
  H   H63       1.0  0.55957  0.58996  0.31719  1.0000
  H   H64       1.0  0.56947  0.46002  0.30741  1.0000
  H   H65       1.0  0.63072  0.52067  0.30995  1.0000
  H   H66       1.0  0.65919  0.57435  0.47304  1.0000
  H   H67       1.0  0.72090  0.58462  0.47599  1.0000
  H   H68       1.0  0.66877  0.66360  0.36728  1.0000
  H   H69       1.0  0.56121  0.69695  0.47214  1.0000
  H   H70       1.0  0.57120  0.75854  0.47196  1.0000
  H   H71       1.0  0.34053  0.53859  0.47631  1.0000
  H   H72       1.0  0.40211  0.54853  0.47336  1.0000
  C   C118      1.0  0.62216  0.04214  0.35714  1.0000
  C   C119      1.0  0.61630  0.09262  0.33977  1.0000
  N   N18       1.0  0.56213  0.12199  0.33384  1.0000
  C   C120      1.0  0.54595  0.14312  0.32882  1.0000
  C   C121      1.0  0.57469  0.17956  0.31667  1.0000
  C   C122      1.0  0.60763  0.17923  0.31503  1.0000
  C   C123      1.0  0.50767  0.13147  0.33711  1.0000
  C   C124      1.0  0.44727  0.03136  0.33962  1.0000
  C   C125      1.0  0.44140  0.08185  0.35676  1.0000
  C   C126      1.0  0.51763  0.98086  0.32914  1.0000
  C   C127      1.0  0.55591  0.99251  0.33733  1.0000
  C   C128      1.0  0.55716  0.94190  0.41927  1.0000
  C   C129      1.0  0.56346  0.91172  0.42115  1.0000
  C   C130      1.0  0.38226  0.94858  0.41292  1.0000
  C   C131      1.0  0.34588  0.91821  0.41251  1.0000
  C   C132      1.0  0.49782  0.15968  0.34202  1.0000
  C   C133      1.0  0.48405  0.22030  0.34673  1.0000
  C   C134      1.0  0.49983  0.21216  0.42088  1.0000
  C   C135      1.0  0.50637  0.18214  0.41890  1.0000
  C   C136      1.0  0.66375  0.15809  0.33209  1.0000
  C   C137      1.0  0.68124  0.17548  0.41280  1.0000
  C   C138      1.0  0.71751  0.20603  0.41235  1.0000
  H   H73       1.0  0.72863  0.21873  0.47197  1.0000
  H   H74       1.0  0.66718  0.16692  0.47203  1.0000
  H   H75       1.0  0.63400  0.02602  0.36664  1.0000
  H   H76       1.0  0.63321  0.20227  0.30777  1.0000
  H   H77       1.0  0.57255  0.20285  0.31022  1.0000
  H   H78       1.0  0.51872  0.17764  0.47277  1.0000
  H   H79       1.0  0.50843  0.22906  0.47568  1.0000
  H   H80       1.0  0.42956  0.09797  0.36637  1.0000
  H   H81       1.0  0.39628  0.95716  0.47218  1.0000
  H   H82       1.0  0.33471  0.90555  0.47212  1.0000
  H   H83       1.0  0.55479  0.89485  0.47599  1.0000
  H   H84       1.0  0.54483  0.94647  0.47312  1.0000
  C   C139      1.0  0.28898  0.51081  0.34589  1.0000
  C   C140      1.0  0.22225  0.51236  0.33239  1.0000
  N   N19       1.0  0.23157  0.50007  0.40673  1.0000
  C   C141      1.0  0.26316  0.49840  0.41763  1.0000
  C   C142      1.0  0.26757  0.48359  0.49660  1.0000
  O   O1        1.0  0.25702  0.49081  0.56598  1.0000
  O   O2        1.0  0.26898  0.45465  0.49818  1.0000
  H   H85       1.0  0.27300  0.44424  0.45114  1.0000
  C   C143      1.0  0.58249  0.87100  0.34540  1.0000
  C   C144      1.0  0.58090  0.80270  0.33196  1.0000
  N   N20       1.0  0.59319  0.82433  0.40630  1.0000
  C   C145      1.0  0.59489  0.85761  0.41714  1.0000
  C   C146      1.0  0.60971  0.87681  0.49620  1.0000
  O   O3        1.0  0.60228  0.85923  0.56583  1.0000
  O   O4        1.0  0.63843  0.90739  0.49753  1.0000
  H   H86       1.0  0.64886  0.92169  0.45033  1.0000
  C   C147      1.0  0.22222  0.80425  0.34576  1.0000
  C   C148      1.0  0.29053  0.87094  0.33223  1.0000
  N   N21       1.0  0.26890  0.86165  0.40658  1.0000
  C   C149      1.0  0.23561  0.83008  0.41747  1.0000
  C   C150      1.0  0.21644  0.82573  0.49652  1.0000
  O   O5        1.0  0.23399  0.83632  0.56614  1.0000
  O   O6        1.0  0.18587  0.82389  0.49806  1.0000
  H   H87       1.0  0.17146  0.81981  0.45099  1.0000
  C   C151      1.0  0.77256  0.61278  0.34575  1.0000
  C   C152      1.0  0.83966  0.61194  0.33238  1.0000
  N   N22       1.0  0.83009  0.62401  0.40676  1.0000
  C   C153      1.0  0.79831  0.62535  0.41758  1.0000
  C   C154      1.0  0.79370  0.63997  0.49672  1.0000
  O   O7        1.0  0.80391  0.63260  0.56632  1.0000
  O   O8        1.0  0.79157  0.66854  0.49822  1.0000
  H   H88       1.0  0.78761  0.67892  0.45108  1.0000
  C   C155      1.0  0.48034  0.25253  0.34533  1.0000
  C   C156      1.0  0.48118  0.32047  0.33193  1.0000
  N   N23       1.0  0.46911  0.29886  0.40632  1.0000
  C   C157      1.0  0.46776  0.26575  0.41715  1.0000
  C   C158      1.0  0.45312  0.24655  0.49622  1.0000
  O   O9        1.0  0.46000  0.26409  0.56586  1.0000
  O   O10       1.0  0.42455  0.21585  0.49782  1.0000
  H   H89       1.0  0.41427  0.20139  0.45077  1.0000
  C   C159      1.0  0.84073  0.32055  0.34559  1.0000
  C   C160      1.0  0.77275  0.25350  0.33205  1.0000
  N   N24       1.0  0.79432  0.26303  0.40649  1.0000
  C   C161      1.0  0.82745  0.29478  0.41739  1.0000
  C   C162      1.0  0.84659  0.29938  0.49656  1.0000
  O   O11       1.0  0.82900  0.28873  0.56613  1.0000
  O   O12       1.0  0.87731  0.30154  0.49832  1.0000
  H   H90       1.0  0.89180  0.30571  0.45134  1.0000
