data_image0
_chemical_formula_structural       C5HNO2NHC3HNO2NHC3HNO2NHNCNCNC3O3NCNCNC3O3C3HNO2NHC3HNO2NHC3HNO2NHC5HNO2NHC3HNO2NHC3HNO2NHNCNCNC3O3NCNCNC3O3C3HNO2NHC3HNO2NHC3HNO2NHC5HNO2NHC3HNO2NHC3HNO2NHNCNCNC3O3NCNCNC3O3C3HNO2NHC3HNO2NHC3HNO2NHC5HNO2NHC3HNO2NHC3HNO2NHNCNCNC3O3NCNCNC3O3C3HNO2NHC3HNO2NHC3HNO2NH
_chemical_formula_sum              "C120 H48 N72 O72"
_cell_length_a       43.4319
_cell_length_b       43.4318
_cell_length_c       15.0391
_cell_angle_alpha    90
_cell_angle_beta     90
_cell_angle_gamma    120

_space_group_name_H-M_alt    "P 1"
_space_group_IT_number       1

loop_
  _space_group_symop_operation_xyz
  'x, y, z'

loop_
  _atom_site_type_symbol
  _atom_site_label
  _atom_site_symmetry_multiplicity
  _atom_site_fract_x
  _atom_site_fract_y
  _atom_site_fract_z
  _atom_site_occupancy
  C   C1        1.0  0.12932  0.32200  0.24389  1.0000
  C   C2        1.0  0.36677  0.17542  0.41759  1.0000
  C   C3        1.0  0.23274  0.26830  0.29097  1.0000
  C   C4        1.0  0.26794  0.27653  0.26976  1.0000
  C   C5        1.0  0.28241  0.25692  0.30882  1.0000
  H   H1        1.0  0.30668  0.26201  0.28664  1.0000
  N   N1        1.0  0.28778  0.30311  0.20561  1.0000
  O   O1        1.0  0.29479  0.29048  0.13846  1.0000
  O   O2        1.0  0.31632  0.32759  0.23751  1.0000
  N   N2        1.0  0.21924  0.28856  0.25785  1.0000
  H   H2        1.0  0.23654  0.31197  0.23536  1.0000
  C   C6        1.0  0.22846  0.46380  0.29096  1.0000
  C   C7        1.0  0.22023  0.49077  0.26971  1.0000
  C   C8        1.0  0.23982  0.02484  0.30881  1.0000
  H   H3        1.0  0.23477  0.04404  0.28649  1.0000
  N   N3        1.0  0.19367  0.48402  0.20549  1.0000
  O   O3        1.0  0.20632  0.50368  0.13836  1.0000
  O   O4        1.0  0.16918  0.48809  0.23732  1.0000
  N   N4        1.0  0.20819  0.43004  0.25784  1.0000
  H   H4        1.0  0.18478  0.42392  0.23535  1.0000
  C   C9        1.0  0.03295  0.26400  0.29102  1.0000
  C   C10       1.0  0.00598  0.22879  0.26981  1.0000
  C   C11       1.0  0.47191  0.21431  0.30892  1.0000
  H   H5        1.0  0.45273  0.19007  0.28661  1.0000
  N   N5        1.0  0.01273  0.20898  0.20559  1.0000
  O   O5        1.0  0.99307  0.20197  0.13847  1.0000
  O   O6        1.0  0.00868  0.18043  0.23743  1.0000
  N   N6        1.0  0.06671  0.27749  0.25789  1.0000
  H   H6        1.0  0.07283  0.26020  0.23537  1.0000
  N   N7        1.0  0.15487  0.35686  0.24466  1.0000
  C   C12       1.0  0.19006  0.36743  0.24389  1.0000
  N   N8        1.0  0.19938  0.34188  0.24464  1.0000
  C   C13       1.0  0.17476  0.30669  0.24386  1.0000
  N   N9        1.0  0.13990  0.29738  0.24464  1.0000
  C   C14       1.0  0.21620  0.40341  0.25399  1.0000
  C   C15       1.0  0.18460  0.28055  0.25397  1.0000
  C   C16       1.0  0.09334  0.31214  0.25403  1.0000
  O   O7        1.0  0.15785  0.24630  0.25808  1.0000
  O   O8        1.0  0.08583  0.33889  0.25814  1.0000
  O   O9        1.0  0.25045  0.41091  0.25807  1.0000
  N   N10       1.0  0.34122  0.14056  0.41679  1.0000
  C   C17       1.0  0.30603  0.12998  0.41755  1.0000
  N   N11       1.0  0.29671  0.15552  0.41683  1.0000
  C   C18       1.0  0.32133  0.19071  0.41761  1.0000
  N   N12       1.0  0.35619  0.20004  0.41685  1.0000
  C   C19       1.0  0.27991  0.09399  0.40744  1.0000
  C   C20       1.0  0.31147  0.21685  0.40754  1.0000
  C   C21       1.0  0.40275  0.18526  0.40747  1.0000
  O   O10       1.0  0.33822  0.25111  0.40344  1.0000
  O   O11       1.0  0.41025  0.15851  0.40336  1.0000
  O   O12       1.0  0.24565  0.08647  0.40335  1.0000
  C   C22       1.0  0.26333  0.22909  0.37051  1.0000
  C   C23       1.0  0.22812  0.22085  0.39169  1.0000
  C   C24       1.0  0.21363  0.24041  0.35252  1.0000
  H   H7        1.0  0.18940  0.23537  0.37486  1.0000
  N   N13       1.0  0.20831  0.19429  0.45592  1.0000
  O   O13       1.0  0.20129  0.20695  0.52301  1.0000
  O   O14       1.0  0.17977  0.16979  0.42409  1.0000
  N   N14       1.0  0.27683  0.20883  0.40368  1.0000
  H   H8        1.0  0.25954  0.18542  0.42619  1.0000
  C   C25       1.0  0.26767  0.03361  0.37044  1.0000
  C   C26       1.0  0.27592  0.00665  0.39163  1.0000
  C   C27       1.0  0.25634  0.47258  0.35251  1.0000
  H   H9        1.0  0.26138  0.45339  0.37486  1.0000
  N   N15       1.0  0.30248  0.01340  0.45585  1.0000
  O   O15       1.0  0.28983  0.99374  0.52296  1.0000
  O   O16       1.0  0.32698  0.00935  0.42401  1.0000
  N   N16       1.0  0.28794  0.06737  0.40355  1.0000
  H   H10       1.0  0.31135  0.07349  0.42604  1.0000
  C   C28       1.0  0.46314  0.23340  0.37051  1.0000
  C   C29       1.0  0.49012  0.26860  0.39176  1.0000
  C   C30       1.0  0.02419  0.28307  0.35269  1.0000
  H   H11       1.0  0.04338  0.30733  0.37494  1.0000
  N   N17       1.0  0.48336  0.28842  0.45596  1.0000
  O   O17       1.0  0.50301  0.29542  0.52310  1.0000
  O   O18       1.0  0.48744  0.31697  0.42412  1.0000
  N   N18       1.0  0.42938  0.21990  0.40364  1.0000
  H   H12       1.0  0.42327  0.23720  0.42615  1.0000
  C   C31       1.0  0.12932  0.82200  0.24389  1.0000
  C   C32       1.0  0.36677  0.67542  0.41759  1.0000
  C   C33       1.0  0.23274  0.76830  0.29097  1.0000
  C   C34       1.0  0.26794  0.77653  0.26976  1.0000
  C   C35       1.0  0.28240  0.75691  0.30882  1.0000
  H   H13       1.0  0.30668  0.76201  0.28664  1.0000
  N   N19       1.0  0.28778  0.80311  0.20561  1.0000
  O   O19       1.0  0.29479  0.79048  0.13846  1.0000
  O   O20       1.0  0.31632  0.82759  0.23751  1.0000
  N   N20       1.0  0.21924  0.78856  0.25785  1.0000
  H   H14       1.0  0.23654  0.81197  0.23536  1.0000
  C   C36       1.0  0.22846  0.96380  0.29096  1.0000
  C   C37       1.0  0.22023  0.99077  0.26971  1.0000
  C   C38       1.0  0.23982  0.52484  0.30881  1.0000
  H   H15       1.0  0.23477  0.54404  0.28649  1.0000
  N   N21       1.0  0.19367  0.98403  0.20549  1.0000
  O   O21       1.0  0.20632  0.00368  0.13836  1.0000
  O   O22       1.0  0.16918  0.98809  0.23732  1.0000
  N   N22       1.0  0.20819  0.93004  0.25784  1.0000
  H   H16       1.0  0.18478  0.92393  0.23535  1.0000
  C   C39       1.0  0.03295  0.76400  0.29102  1.0000
  C   C40       1.0  0.00598  0.72879  0.26981  1.0000
  C   C41       1.0  0.47191  0.71431  0.30892  1.0000
  H   H17       1.0  0.45273  0.69007  0.28661  1.0000
  N   N23       1.0  0.01273  0.70898  0.20559  1.0000
  O   O23       1.0  0.99307  0.70197  0.13847  1.0000
  O   O24       1.0  0.00867  0.68043  0.23743  1.0000
  N   N24       1.0  0.06671  0.77750  0.25789  1.0000
  H   H18       1.0  0.07283  0.76020  0.23537  1.0000
  N   N25       1.0  0.15487  0.85686  0.24466  1.0000
  C   C42       1.0  0.19006  0.86743  0.24389  1.0000
  N   N26       1.0  0.19938  0.84188  0.24464  1.0000
  C   C43       1.0  0.17476  0.80669  0.24386  1.0000
  N   N27       1.0  0.13990  0.79738  0.24464  1.0000
  C   C44       1.0  0.21620  0.90341  0.25399  1.0000
  C   C45       1.0  0.18460  0.78055  0.25397  1.0000
  C   C46       1.0  0.09334  0.81214  0.25403  1.0000
  O   O25       1.0  0.15784  0.74630  0.25808  1.0000
  O   O26       1.0  0.08583  0.83889  0.25814  1.0000
  O   O27       1.0  0.25045  0.91091  0.25807  1.0000
  N   N28       1.0  0.34122  0.64056  0.41679  1.0000
  C   C47       1.0  0.30603  0.62998  0.41755  1.0000
  N   N29       1.0  0.29671  0.65552  0.41683  1.0000
  C   C48       1.0  0.32133  0.69071  0.41761  1.0000
  N   N30       1.0  0.35619  0.70004  0.41685  1.0000
  C   C49       1.0  0.27991  0.59399  0.40744  1.0000
  C   C50       1.0  0.31147  0.71685  0.40754  1.0000
  C   C51       1.0  0.40275  0.68526  0.40747  1.0000
  O   O28       1.0  0.33822  0.75111  0.40344  1.0000
  O   O29       1.0  0.41025  0.65851  0.40336  1.0000
  O   O30       1.0  0.24565  0.58647  0.40335  1.0000
  C   C52       1.0  0.26333  0.72909  0.37051  1.0000
  C   C53       1.0  0.22812  0.72084  0.39169  1.0000
  C   C54       1.0  0.21363  0.74041  0.35252  1.0000
  H   H19       1.0  0.18940  0.73537  0.37486  1.0000
  N   N31       1.0  0.20831  0.69429  0.45592  1.0000
  O   O31       1.0  0.20129  0.70695  0.52301  1.0000
  O   O32       1.0  0.17977  0.66979  0.42409  1.0000
  N   N32       1.0  0.27683  0.70883  0.40368  1.0000
  H   H20       1.0  0.25954  0.68542  0.42619  1.0000
  C   C55       1.0  0.26767  0.53361  0.37044  1.0000
  C   C56       1.0  0.27592  0.50665  0.39163  1.0000
  C   C57       1.0  0.25634  0.97258  0.35251  1.0000
  H   H21       1.0  0.26138  0.95339  0.37486  1.0000
  N   N33       1.0  0.30248  0.51340  0.45585  1.0000
  O   O33       1.0  0.28983  0.49373  0.52296  1.0000
  O   O34       1.0  0.32698  0.50936  0.42401  1.0000
  N   N34       1.0  0.28794  0.56737  0.40355  1.0000
  H   H22       1.0  0.31135  0.57349  0.42604  1.0000
  C   C58       1.0  0.46314  0.73340  0.37051  1.0000
  C   C59       1.0  0.49011  0.76860  0.39176  1.0000
  C   C60       1.0  0.02419  0.78307  0.35269  1.0000
  H   H23       1.0  0.04337  0.80733  0.37494  1.0000
  N   N35       1.0  0.48336  0.78842  0.45596  1.0000
  O   O35       1.0  0.50301  0.79542  0.52310  1.0000
  O   O36       1.0  0.48744  0.81697  0.42412  1.0000
  N   N36       1.0  0.42938  0.71990  0.40364  1.0000
  H   H24       1.0  0.42327  0.73720  0.42615  1.0000
  C   C61       1.0  0.62932  0.32200  0.24389  1.0000
  C   C62       1.0  0.86677  0.17542  0.41759  1.0000
  C   C63       1.0  0.73274  0.26830  0.29097  1.0000
  C   C64       1.0  0.76794  0.27653  0.26976  1.0000
  C   C65       1.0  0.78241  0.25692  0.30882  1.0000
  H   H25       1.0  0.80668  0.26201  0.28664  1.0000
  N   N37       1.0  0.78777  0.30311  0.20561  1.0000
  O   O37       1.0  0.79479  0.29048  0.13846  1.0000
  O   O38       1.0  0.81632  0.32759  0.23751  1.0000
  N   N38       1.0  0.71924  0.28856  0.25785  1.0000
  H   H26       1.0  0.73654  0.31197  0.23536  1.0000
  C   C66       1.0  0.72846  0.46380  0.29096  1.0000
  C   C67       1.0  0.72023  0.49077  0.26971  1.0000
  C   C68       1.0  0.73982  0.02484  0.30881  1.0000
  H   H27       1.0  0.73478  0.04404  0.28649  1.0000
  N   N39       1.0  0.69367  0.48402  0.20549  1.0000
  O   O39       1.0  0.70632  0.50368  0.13836  1.0000
  O   O40       1.0  0.66918  0.48809  0.23732  1.0000
  N   N40       1.0  0.70819  0.43004  0.25784  1.0000
  H   H28       1.0  0.68478  0.42392  0.23535  1.0000
  C   C69       1.0  0.53295  0.26400  0.29102  1.0000
  C   C70       1.0  0.50598  0.22879  0.26981  1.0000
  C   C71       1.0  0.97191  0.21431  0.30892  1.0000
  H   H29       1.0  0.95273  0.19007  0.28661  1.0000
  N   N41       1.0  0.51273  0.20898  0.20559  1.0000
  O   O41       1.0  0.49307  0.20197  0.13847  1.0000
  O   O42       1.0  0.50867  0.18043  0.23743  1.0000
  N   N42       1.0  0.56671  0.27749  0.25789  1.0000
  H   H30       1.0  0.57283  0.26020  0.23537  1.0000
  N   N43       1.0  0.65487  0.35686  0.24466  1.0000
  C   C72       1.0  0.69006  0.36743  0.24389  1.0000
  N   N44       1.0  0.69938  0.34188  0.24464  1.0000
  C   C73       1.0  0.67476  0.30669  0.24386  1.0000
  N   N45       1.0  0.63990  0.29738  0.24464  1.0000
  C   C74       1.0  0.71620  0.40341  0.25399  1.0000
  C   C75       1.0  0.68460  0.28055  0.25397  1.0000
  C   C76       1.0  0.59334  0.31214  0.25403  1.0000
  O   O43       1.0  0.65785  0.24630  0.25808  1.0000
  O   O44       1.0  0.58583  0.33889  0.25814  1.0000
  O   O45       1.0  0.75046  0.41091  0.25807  1.0000
  N   N46       1.0  0.84122  0.14056  0.41679  1.0000
  C   C77       1.0  0.80603  0.12998  0.41755  1.0000
  N   N47       1.0  0.79671  0.15552  0.41683  1.0000
  C   C78       1.0  0.82133  0.19071  0.41761  1.0000
  N   N48       1.0  0.85619  0.20004  0.41685  1.0000
  C   C79       1.0  0.77991  0.09399  0.40744  1.0000
  C   C80       1.0  0.81147  0.21685  0.40754  1.0000
  C   C81       1.0  0.90275  0.18526  0.40747  1.0000
  O   O46       1.0  0.83822  0.25111  0.40344  1.0000
  O   O47       1.0  0.91025  0.15851  0.40336  1.0000
  O   O48       1.0  0.74565  0.08647  0.40335  1.0000
  C   C82       1.0  0.76333  0.22909  0.37051  1.0000
  C   C83       1.0  0.72812  0.22085  0.39169  1.0000
  C   C84       1.0  0.71363  0.24041  0.35252  1.0000
  H   H31       1.0  0.68940  0.23537  0.37486  1.0000
  N   N49       1.0  0.70831  0.19429  0.45592  1.0000
  O   O49       1.0  0.70129  0.20695  0.52301  1.0000
  O   O50       1.0  0.67977  0.16979  0.42409  1.0000
  N   N50       1.0  0.77683  0.20883  0.40368  1.0000
  H   H32       1.0  0.75954  0.18542  0.42619  1.0000
  C   C85       1.0  0.76767  0.03361  0.37044  1.0000
  C   C86       1.0  0.77592  0.00665  0.39163  1.0000
  C   C87       1.0  0.75634  0.47258  0.35251  1.0000
  H   H33       1.0  0.76138  0.45339  0.37486  1.0000
  N   N51       1.0  0.80248  0.01340  0.45585  1.0000
  O   O51       1.0  0.78983  0.99374  0.52296  1.0000
  O   O52       1.0  0.82698  0.00935  0.42401  1.0000
  N   N52       1.0  0.78794  0.06737  0.40355  1.0000
  H   H34       1.0  0.81135  0.07349  0.42604  1.0000
  C   C88       1.0  0.96314  0.23340  0.37051  1.0000
  C   C89       1.0  0.99011  0.26860  0.39176  1.0000
  C   C90       1.0  0.52419  0.28307  0.35269  1.0000
  H   H35       1.0  0.54337  0.30733  0.37494  1.0000
  N   N53       1.0  0.98337  0.28842  0.45596  1.0000
  O   O53       1.0  0.00301  0.29542  0.52310  1.0000
  O   O54       1.0  0.98743  0.31697  0.42412  1.0000
  N   N54       1.0  0.92938  0.21990  0.40364  1.0000
  H   H36       1.0  0.92326  0.23720  0.42615  1.0000
  C   C91       1.0  0.62932  0.82200  0.24389  1.0000
  C   C92       1.0  0.86677  0.67542  0.41759  1.0000
  C   C93       1.0  0.73274  0.76830  0.29097  1.0000
  C   C94       1.0  0.76794  0.77653  0.26976  1.0000
  C   C95       1.0  0.78240  0.75691  0.30882  1.0000
  H   H37       1.0  0.80668  0.76201  0.28664  1.0000
  N   N55       1.0  0.78777  0.80311  0.20561  1.0000
  O   O55       1.0  0.79479  0.79048  0.13846  1.0000
  O   O56       1.0  0.81632  0.82759  0.23751  1.0000
  N   N56       1.0  0.71924  0.78856  0.25785  1.0000
  H   H38       1.0  0.73654  0.81197  0.23536  1.0000
  C   C96       1.0  0.72846  0.96380  0.29096  1.0000
  C   C97       1.0  0.72023  0.99077  0.26971  1.0000
  C   C98       1.0  0.73982  0.52484  0.30881  1.0000
  H   H39       1.0  0.73477  0.54404  0.28649  1.0000
  N   N57       1.0  0.69367  0.98403  0.20549  1.0000
  O   O57       1.0  0.70632  0.00368  0.13836  1.0000
  O   O58       1.0  0.66918  0.98809  0.23732  1.0000
  N   N58       1.0  0.70819  0.93004  0.25784  1.0000
  H   H40       1.0  0.68478  0.92393  0.23535  1.0000
  C   C99       1.0  0.53295  0.76400  0.29102  1.0000
  C   C100      1.0  0.50598  0.72879  0.26981  1.0000
  C   C101      1.0  0.97191  0.71431  0.30892  1.0000
  H   H41       1.0  0.95273  0.69007  0.28661  1.0000
  N   N59       1.0  0.51273  0.70898  0.20559  1.0000
  O   O59       1.0  0.49307  0.70197  0.13847  1.0000
  O   O60       1.0  0.50867  0.68043  0.23743  1.0000
  N   N60       1.0  0.56671  0.77750  0.25789  1.0000
  H   H42       1.0  0.57283  0.76020  0.23537  1.0000
  N   N61       1.0  0.65487  0.85686  0.24466  1.0000
  C   C102      1.0  0.69006  0.86743  0.24389  1.0000
  N   N62       1.0  0.69938  0.84188  0.24464  1.0000
  C   C103      1.0  0.67476  0.80669  0.24386  1.0000
  N   N63       1.0  0.63990  0.79738  0.24464  1.0000
  C   C104      1.0  0.71620  0.90341  0.25399  1.0000
  C   C105      1.0  0.68460  0.78055  0.25397  1.0000
  C   C106      1.0  0.59334  0.81214  0.25403  1.0000
  O   O61       1.0  0.65784  0.74630  0.25808  1.0000
  O   O62       1.0  0.58583  0.83889  0.25814  1.0000
  O   O63       1.0  0.75045  0.91091  0.25807  1.0000
  N   N64       1.0  0.84122  0.64056  0.41679  1.0000
  C   C107      1.0  0.80603  0.62998  0.41755  1.0000
  N   N65       1.0  0.79671  0.65552  0.41683  1.0000
  C   C108      1.0  0.82132  0.69071  0.41761  1.0000
  N   N66       1.0  0.85619  0.70004  0.41685  1.0000
  C   C109      1.0  0.77991  0.59399  0.40744  1.0000
  C   C110      1.0  0.81147  0.71685  0.40754  1.0000
  C   C111      1.0  0.90275  0.68526  0.40747  1.0000
  O   O64       1.0  0.83823  0.75111  0.40344  1.0000
  O   O65       1.0  0.91024  0.65851  0.40336  1.0000
  O   O66       1.0  0.74565  0.58647  0.40335  1.0000
  C   C112      1.0  0.76333  0.72909  0.37051  1.0000
  C   C113      1.0  0.72812  0.72084  0.39169  1.0000
  C   C114      1.0  0.71363  0.74041  0.35252  1.0000
  H   H43       1.0  0.68940  0.73537  0.37486  1.0000
  N   N67       1.0  0.70831  0.69429  0.45592  1.0000
  O   O67       1.0  0.70129  0.70695  0.52301  1.0000
  O   O68       1.0  0.67977  0.66979  0.42409  1.0000
  N   N68       1.0  0.77683  0.70883  0.40368  1.0000
  H   H44       1.0  0.75954  0.68542  0.42619  1.0000
  C   C115      1.0  0.76767  0.53361  0.37044  1.0000
  C   C116      1.0  0.77592  0.50665  0.39163  1.0000
  C   C117      1.0  0.75634  0.97258  0.35251  1.0000
  H   H45       1.0  0.76138  0.95339  0.37486  1.0000
  N   N69       1.0  0.80248  0.51340  0.45585  1.0000
  O   O69       1.0  0.78983  0.49373  0.52296  1.0000
  O   O70       1.0  0.82698  0.50936  0.42401  1.0000
  N   N70       1.0  0.78794  0.56737  0.40355  1.0000
  H   H46       1.0  0.81135  0.57349  0.42604  1.0000
  C   C118      1.0  0.96314  0.73340  0.37051  1.0000
  C   C119      1.0  0.99011  0.76860  0.39176  1.0000
  C   C120      1.0  0.52419  0.78307  0.35269  1.0000
  H   H47       1.0  0.54338  0.80733  0.37494  1.0000
  N   N71       1.0  0.98337  0.78842  0.45596  1.0000
  O   O71       1.0  0.00301  0.79542  0.52310  1.0000
  O   O72       1.0  0.98744  0.81697  0.42412  1.0000
  N   N72       1.0  0.92938  0.71990  0.40364  1.0000
  H   H48       1.0  0.92327  0.73720  0.42615  1.0000
