data_image0
_chemical_formula_structural       C2HCHC3HC3HCH2ONC3HC3NC4OHC4HOC4OHC4HOC4OHC4HCH3C4HCNHCH3CNHCH3C4HCNHCH3C4HCNHCH3C4HCNHCH3C2H2C4H4C4H4CNHCH3CNC4H2CH3C4HCH3CNC4H2CH3CNC4H2CH3CNC4H2CH3
_chemical_formula_sum              "C108 H78 O6 N12"
_cell_length_a       31.8731
_cell_length_b       31.8731
_cell_length_c       14.7956
_cell_angle_alpha    90
_cell_angle_beta     90
_cell_angle_gamma    120

_space_group_name_H-M_alt    "P 1"
_space_group_IT_number       1

loop_
  _space_group_symop_operation_xyz
  'x, y, z'

loop_
  _atom_site_type_symbol
  _atom_site_label
  _atom_site_symmetry_multiplicity
  _atom_site_fract_x
  _atom_site_fract_y
  _atom_site_fract_z
  _atom_site_occupancy
  C   C1        1.0  0.03714  0.52009  0.34580  1.0000
  C   C2        1.0  0.06540  0.57155  0.33443  1.0000
  H   H1        1.0  0.04881  0.59128  0.32257  1.0000
  C   C3        1.0  0.06468  0.49611  0.35686  1.0000
  H   H2        1.0  0.04756  0.45964  0.36722  1.0000
  C   C4        1.0  0.11680  0.59767  0.33514  1.0000
  C   C5        1.0  0.14166  0.57170  0.34761  1.0000
  C   C6        1.0  0.15573  0.48028  0.28441  1.0000
  H   H3        1.0  0.13785  0.47687  0.22509  1.0000
  C   C7        1.0  0.14511  0.64927  0.32505  1.0000
  C   C8        1.0  0.11605  0.52072  0.35703  1.0000
  C   C9        1.0  0.14363  0.49652  0.36346  1.0000
  H   H4        1.0  0.16677  0.51841  0.49671  1.0000
  C   C10       1.0  0.15433  0.67966  0.40049  1.0000
  H   H5        1.0  0.13461  0.66667  0.45857  1.0000
  H   H6        1.0  0.17258  0.64734  0.19726  1.0000
  O   O1        1.0  0.19129  0.59588  0.34713  1.0000
  N   N1        1.0  0.19616  0.47624  0.28248  1.0000
  C   C11       1.0  0.22769  0.74493  0.33433  1.0000
  C   C12       1.0  0.21847  0.71673  0.25377  1.0000
  C   C13       1.0  0.17719  0.66946  0.25112  1.0000
  H   H7        1.0  0.20175  0.60930  0.40821  1.0000
  C   C14       1.0  0.22721  0.48517  0.35275  1.0000
  C   C15       1.0  0.21492  0.49879  0.43659  1.0000
  C   C16       1.0  0.17328  0.50421  0.43986  1.0000
  N   N2        1.0  0.19446  0.72442  0.40205  1.0000
  C   C17       1.0  0.98361  0.49368  0.34582  1.0000
  C   C18       1.0  0.87910  0.44207  0.34764  1.0000
  C   C19       1.0  0.90396  0.41611  0.33517  1.0000
  C   C20       1.0  0.95535  0.44222  0.33447  1.0000
  O   O2        1.0  0.82946  0.41789  0.34717  1.0000
  H   H8        1.0  0.97195  0.42250  0.32253  1.0000
  C   C21       1.0  0.49715  0.52047  0.34581  1.0000
  C   C22       1.0  0.44568  0.49726  0.33451  1.0000
  C   C23       1.0  0.41956  0.52254  0.33520  1.0000
  C   C24       1.0  0.44553  0.57336  0.34765  1.0000
  H   H9        1.0  0.42596  0.46094  0.32260  1.0000
  O   O3        1.0  0.42134  0.59881  0.34721  1.0000
  C   C25       1.0  0.52357  0.49336  0.34580  1.0000
  C   C26       1.0  0.57520  0.44048  0.34771  1.0000
  C   C27       1.0  0.60116  0.49131  0.33520  1.0000
  C   C28       1.0  0.57503  0.51657  0.33443  1.0000
  O   O4        1.0  0.59940  0.41504  0.34732  1.0000
  H   H10       1.0  0.59475  0.55290  0.32257  1.0000
  C   C29       1.0  0.49678  0.98016  0.34581  1.0000
  C   C30       1.0  0.51999  0.95190  0.33442  1.0000
  C   C31       1.0  0.49472  0.90051  0.33514  1.0000
  C   C32       1.0  0.44389  0.87564  0.34761  1.0000
  H   H11       1.0  0.55631  0.96850  0.32256  1.0000
  O   O5        1.0  0.41844  0.82601  0.34714  1.0000
  C   C33       1.0  0.52391  0.03369  0.34583  1.0000
  C   C34       1.0  0.57680  0.13820  0.34765  1.0000
  C   C35       1.0  0.52598  0.11335  0.33519  1.0000
  C   C36       1.0  0.50070  0.06195  0.33449  1.0000
  O   O6        1.0  0.60226  0.18784  0.34718  1.0000
  H   H12       1.0  0.46438  0.04535  0.32256  1.0000
  C   C37       1.0  0.36795  0.49924  0.32518  1.0000
  C   C38       1.0  0.27232  0.48614  0.33436  1.0000
  C   C39       1.0  0.30054  0.50515  0.25381  1.0000
  C   C40       1.0  0.34781  0.51114  0.25118  1.0000
  H   H13       1.0  0.36995  0.52867  0.19736  1.0000
  C   C41       1.0  0.28491  0.52366  0.17586  1.0000
  H   H14       1.0  0.27602  0.55080  0.19901  1.0000
  H   H15       1.0  0.25321  0.49381  0.14384  1.0000
  H   H16       1.0  0.31276  0.54060  0.12382  1.0000
  C   C42       1.0  0.51800  0.87220  0.32504  1.0000
  C   C43       1.0  0.53105  0.78960  0.33431  1.0000
  C   C44       1.0  0.51209  0.79884  0.25374  1.0000
  C   C45       1.0  0.50612  0.84012  0.25110  1.0000
  H   H17       1.0  0.48862  0.84474  0.19724  1.0000
  C   C46       1.0  0.53692  0.67886  0.28438  1.0000
  N   N3        1.0  0.54095  0.72333  0.28244  1.0000
  H   H18       1.0  0.54032  0.66439  0.22506  1.0000
  C   C47       1.0  0.49361  0.76471  0.17575  1.0000
  H   H19       1.0  0.46645  0.72867  0.19886  1.0000
  H   H20       1.0  0.52347  0.76286  0.14378  1.0000
  H   H21       1.0  0.47669  0.77564  0.12369  1.0000
  C   C48       1.0  0.33839  0.86154  0.28441  1.0000
  N   N4        1.0  0.29392  0.82110  0.28247  1.0000
  H   H22       1.0  0.35286  0.87943  0.22509  1.0000
  C   C49       1.0  0.25261  0.73238  0.17580  1.0000
  H   H23       1.0  0.28864  0.74127  0.19893  1.0000
  H   H24       1.0  0.25445  0.76408  0.14381  1.0000
  H   H25       1.0  0.24169  0.70454  0.12373  1.0000
  C   C50       1.0  0.65275  0.51462  0.32516  1.0000
  C   C51       1.0  0.74843  0.52762  0.33440  1.0000
  C   C52       1.0  0.72021  0.50865  0.25386  1.0000
  C   C53       1.0  0.67295  0.50269  0.25125  1.0000
  H   H26       1.0  0.65083  0.48519  0.19740  1.0000
  C   C54       1.0  0.86500  0.53347  0.28443  1.0000
  N   N5        1.0  0.82456  0.53750  0.28251  1.0000
  H   H27       1.0  0.88288  0.53686  0.22511  1.0000
  C   C55       1.0  0.73582  0.49013  0.17588  1.0000
  H   H28       1.0  0.74469  0.46298  0.19901  1.0000
  H   H29       1.0  0.76753  0.51998  0.14388  1.0000
  H   H30       1.0  0.70797  0.47321  0.12384  1.0000
  C   C56       1.0  0.50269  0.14166  0.32508  1.0000
  C   C57       1.0  0.48965  0.22427  0.33436  1.0000
  C   C58       1.0  0.50862  0.21504  0.25380  1.0000
  C   C59       1.0  0.51460  0.17375  0.25115  1.0000
  H   H31       1.0  0.53210  0.16914  0.19730  1.0000
  C   C60       1.0  0.48383  0.33502  0.28444  1.0000
  N   N6        1.0  0.47979  0.29055  0.28251  1.0000
  H   H32       1.0  0.48045  0.34952  0.22513  1.0000
  C   C61       1.0  0.52713  0.24918  0.17584  1.0000
  H   H33       1.0  0.55429  0.28520  0.19897  1.0000
  H   H34       1.0  0.49728  0.25104  0.14385  1.0000
  H   H35       1.0  0.54405  0.23825  0.12377  1.0000
  C   C62       1.0  0.87564  0.36451  0.32506  1.0000
  C   C63       1.0  0.79304  0.26886  0.33434  1.0000
  C   C64       1.0  0.80228  0.29706  0.25376  1.0000
  C   C65       1.0  0.84356  0.34432  0.25112  1.0000
  H   H36       1.0  0.84818  0.36644  0.19726  1.0000
  C   C66       1.0  0.68230  0.15228  0.28444  1.0000
  N   N7        1.0  0.72677  0.19271  0.28249  1.0000
  H   H37       1.0  0.66782  0.13439  0.22512  1.0000
  C   C67       1.0  0.76815  0.28143  0.17579  1.0000
  H   H38       1.0  0.73211  0.27256  0.19891  1.0000
  H   H39       1.0  0.76628  0.24971  0.14381  1.0000
  H   H40       1.0  0.77907  0.30927  0.12372  1.0000
  C   C68       1.0  0.95608  0.51766  0.35691  1.0000
  C   C69       1.0  0.90471  0.49305  0.35709  1.0000
  H   H41       1.0  0.81901  0.40448  0.40824  1.0000
  H   H42       1.0  0.97320  0.55414  0.36722  1.0000
  C   C70       1.0  0.49651  0.59875  0.35705  1.0000
  C   C71       1.0  0.52112  0.57199  0.35687  1.0000
  C   C72       1.0  0.49960  0.44184  0.35685  1.0000
  C   C73       1.0  0.52423  0.41510  0.35707  1.0000
  H   H43       1.0  0.40793  0.59585  0.40829  1.0000
  H   H44       1.0  0.61279  0.41802  0.40842  1.0000
  H   H45       1.0  0.55760  0.59136  0.36714  1.0000
  H   H46       1.0  0.46312  0.42248  0.36721  1.0000
  C   C74       1.0  0.41852  0.90125  0.35705  1.0000
  C   C75       1.0  0.44527  0.95262  0.35686  1.0000
  C   C76       1.0  0.57542  0.06123  0.35691  1.0000
  C   C77       1.0  0.60217  0.11260  0.35710  1.0000
  H   H47       1.0  0.42140  0.81556  0.40822  1.0000
  H   H48       1.0  0.59930  0.19829  0.40826  1.0000
  H   H49       1.0  0.42591  0.96974  0.36723  1.0000
  H   H50       1.0  0.59478  0.04411  0.36721  1.0000
  C   C78       1.0  0.33755  0.47800  0.40057  1.0000
  N   N8        1.0  0.29279  0.47338  0.40208  1.0000
  H   H51       1.0  0.35054  0.47126  0.45865  1.0000
  C   C79       1.0  0.24632  0.51240  0.51837  1.0000
  H   H52       1.0  0.28289  0.54118  0.50178  1.0000
  H   H53       1.0  0.24766  0.48090  0.54338  1.0000
  H   H54       1.0  0.23322  0.52547  0.57374  1.0000
  C   C80       1.0  0.53915  0.86295  0.40049  1.0000
  N   N9        1.0  0.54377  0.82282  0.40205  1.0000
  C   C81       1.0  0.53203  0.74545  0.35271  1.0000
  C   C82       1.0  0.51843  0.71955  0.43657  1.0000
  C   C83       1.0  0.51302  0.67250  0.43984  1.0000
  C   C84       1.0  0.52070  0.65053  0.36345  1.0000
  H   H55       1.0  0.49884  0.65179  0.49671  1.0000
  H   H56       1.0  0.54588  0.88267  0.45858  1.0000
  C   C85       1.0  0.50484  0.73735  0.51836  1.0000
  H   H57       1.0  0.47604  0.74513  0.50180  1.0000
  H   H58       1.0  0.53633  0.77019  0.54334  1.0000
  H   H59       1.0  0.49179  0.71119  0.57374  1.0000
  C   C86       1.0  0.27182  0.79005  0.35274  1.0000
  C   C87       1.0  0.29772  0.80235  0.43659  1.0000
  C   C88       1.0  0.34477  0.84401  0.43986  1.0000
  C   C89       1.0  0.36673  0.87366  0.36347  1.0000
  H   H60       1.0  0.36549  0.85053  0.49672  1.0000
  C   C90       1.0  0.27994  0.77096  0.51837  1.0000
  H   H61       1.0  0.27217  0.73439  0.50179  1.0000
  H   H62       1.0  0.24709  0.76960  0.54336  1.0000
  H   H63       1.0  0.30610  0.78407  0.57375  1.0000
  C   C91       1.0  0.68319  0.53575  0.40057  1.0000
  N   N10       1.0  0.72794  0.54036  0.40213  1.0000
  C   C92       1.0  0.79353  0.52859  0.35279  1.0000
  C   C93       1.0  0.80584  0.51499  0.43665  1.0000
  C   C94       1.0  0.84748  0.50958  0.43990  1.0000
  C   C95       1.0  0.87713  0.51725  0.36350  1.0000
  H   H64       1.0  0.85401  0.49539  0.49676  1.0000
  H   H65       1.0  0.67022  0.54250  0.45867  1.0000
  C   C96       1.0  0.77445  0.50140  0.51843  1.0000
  H   H66       1.0  0.73788  0.47261  0.50188  1.0000
  H   H67       1.0  0.77311  0.53290  0.54342  1.0000
  H   H68       1.0  0.78757  0.48834  0.57381  1.0000
  C   C97       1.0  0.48152  0.15089  0.40051  1.0000
  N   N11       1.0  0.47691  0.19103  0.40208  1.0000
  C   C98       1.0  0.48868  0.26841  0.35278  1.0000
  C   C99       1.0  0.50226  0.29429  0.43668  1.0000
  C   C100      1.0  0.50768  0.34134  0.44000  1.0000
  C   C101      1.0  0.50005  0.36331  0.36357  1.0000
  H   H69       1.0  0.52187  0.36206  0.49686  1.0000
  H   H70       1.0  0.47478  0.13117  0.45860  1.0000
  C   C102      1.0  0.51582  0.27646  0.51846  1.0000
  H   H71       1.0  0.54461  0.26868  0.50193  1.0000
  H   H72       1.0  0.48431  0.24362  0.54340  1.0000
  H   H73       1.0  0.52886  0.30261  0.57388  1.0000
  C   C103      1.0  0.86640  0.33411  0.40051  1.0000
  N   N12       1.0  0.82627  0.28936  0.40206  1.0000
  C   C104      1.0  0.74889  0.22376  0.35275  1.0000
  C   C105      1.0  0.72299  0.21147  0.43660  1.0000
  C   C106      1.0  0.67593  0.16984  0.43988  1.0000
  C   C107      1.0  0.65395  0.14018  0.36350  1.0000
  H   H74       1.0  0.65522  0.16333  0.49674  1.0000
  H   H75       1.0  0.88612  0.34710  0.45859  1.0000
  C   C108      1.0  0.74079  0.24288  0.51837  1.0000
  H   H76       1.0  0.74858  0.27945  0.50179  1.0000
  H   H77       1.0  0.77363  0.24422  0.54337  1.0000
  H   H78       1.0  0.71462  0.22978  0.57375  1.0000
