data_image0
_chemical_formula_structural       C6H9C6H9C3HCH3NHC3HCH3NHC3HCH3NHC18H9CHCHCHC18H9CHCHCHC3HCH3NHC3HCH3NHC3HCH3NH
_chemical_formula_sum              "C78 H72 N6"
_cell_length_a       37.0486
_cell_length_b       37.0496
_cell_length_c       15.0312
_cell_angle_alpha    90
_cell_angle_beta     90
_cell_angle_gamma    120

_space_group_name_H-M_alt    "P 1"
_space_group_IT_number       1

loop_
  _space_group_symop_operation_xyz
  'x, y, z'

loop_
  _atom_site_type_symbol
  _atom_site_label
  _atom_site_symmetry_multiplicity
  _atom_site_fract_x
  _atom_site_fract_y
  _atom_site_fract_z
  _atom_site_occupancy
  C   C1        1.0  0.17294  0.57775  0.29745  1.0000
  C   C2        1.0  0.21640  0.59668  0.28791  1.0000
  C   C3        1.0  0.37820  0.78101  0.28787  1.0000
  C   C4        1.0  0.40273  0.82447  0.29739  1.0000
  C   C5        1.0  0.40074  0.61921  0.28785  1.0000
  C   C6        1.0  0.41967  0.59467  0.29740  1.0000
  H   H1        1.0  0.39665  0.84294  0.25682  1.0000
  H   H2        1.0  0.35516  0.76939  0.24075  1.0000
  H   H3        1.0  0.41215  0.64224  0.24072  1.0000
  H   H4        1.0  0.44420  0.60074  0.25681  1.0000
  H   H5        1.0  0.22802  0.58527  0.24077  1.0000
  H   H6        1.0  0.15446  0.55322  0.25684  1.0000
  H   H7        1.0  0.09981  0.59388  0.35095  1.0000
  H   H8        1.0  0.49199  0.89761  0.35088  1.0000
  H   H9        1.0  0.40355  0.50543  0.35098  1.0000
  C   C7        1.0  0.81837  0.41620  0.25911  1.0000
  C   C8        1.0  0.77532  0.39955  0.27117  1.0000
  C   C9        1.0  0.62216  0.22208  0.27118  1.0000
  C   C10       1.0  0.59576  0.17903  0.25911  1.0000
  C   C11       1.0  0.59786  0.37525  0.27113  1.0000
  C   C12       1.0  0.58119  0.40163  0.25909  1.0000
  H   H10       1.0  0.60280  0.16415  0.21061  1.0000
  H   H11       1.0  0.64735  0.23737  0.22993  1.0000
  H   H12       1.0  0.58793  0.35004  0.22992  1.0000
  H   H13       1.0  0.55925  0.39458  0.21061  1.0000
  H   H14       1.0  0.76003  0.40945  0.22990  1.0000
  H   H15       1.0  0.83326  0.43814  0.21062  1.0000
  H   H16       1.0  0.89258  0.42050  0.22714  1.0000
  H   H17       1.0  0.52584  0.10484  0.22707  1.0000
  H   H18       1.0  0.57689  0.47154  0.22710  1.0000
  C   C13       1.0  0.48637  0.50774  0.25313  1.0000
  C   C14       1.0  0.50323  0.48099  0.25563  1.0000
  C   C15       1.0  0.51641  0.47156  0.33621  1.0000
  H   H19       1.0  0.50615  0.46811  0.19771  1.0000
  C   C16       1.0  0.47341  0.51598  0.16535  1.0000
  H   H20       1.0  0.46081  0.53695  0.16942  1.0000
  H   H21       1.0  0.44943  0.48669  0.13642  1.0000
  H   H22       1.0  0.50016  0.53000  0.12050  1.0000
  N   N1        1.0  0.53413  0.44546  0.33558  1.0000
  H   H23       1.0  0.51435  0.41802  0.30362  1.0000
  C   C17       1.0  0.48964  0.97811  0.25309  1.0000
  C   C18       1.0  0.51638  0.02172  0.25559  1.0000
  C   C19       1.0  0.52582  0.04432  0.33617  1.0000
  H   H24       1.0  0.52926  0.03752  0.19767  1.0000
  C   C20       1.0  0.48140  0.95691  0.16532  1.0000
  H   H25       1.0  0.46042  0.92333  0.16939  1.0000
  H   H26       1.0  0.51069  0.96222  0.13636  1.0000
  H   H27       1.0  0.46736  0.96963  0.12048  1.0000
  N   N2        1.0  0.55192  0.08815  0.33554  1.0000
  H   H28       1.0  0.57936  0.09580  0.30357  1.0000
  C   C21       1.0  0.01930  0.51104  0.25315  1.0000
  C   C22       1.0  0.97569  0.49417  0.25565  1.0000
  C   C23       1.0  0.95308  0.48100  0.33622  1.0000
  H   H29       1.0  0.95988  0.49125  0.19773  1.0000
  C   C24       1.0  0.04050  0.52400  0.16537  1.0000
  H   H30       1.0  0.07408  0.53660  0.16944  1.0000
  H   H31       1.0  0.03519  0.54798  0.13642  1.0000
  H   H32       1.0  0.02778  0.49724  0.12053  1.0000
  N   N3        1.0  0.90925  0.46327  0.33559  1.0000
  H   H33       1.0  0.90160  0.48305  0.30362  1.0000
  C   C25       1.0  0.35852  0.70974  0.33643  1.0000
  C   C26       1.0  0.31470  0.69191  0.33630  1.0000
  C   C27       1.0  0.28767  0.64827  0.33646  1.0000
  C   C28       1.0  0.30550  0.62227  0.33630  1.0000
  C   C29       1.0  0.34915  0.63889  0.33641  1.0000
  C   C30       1.0  0.37514  0.68271  0.33627  1.0000
  C   C31       1.0  0.24362  0.63072  0.34217  1.0000
  C   C32       1.0  0.22585  0.64584  0.40484  1.0000
  C   C33       1.0  0.18238  0.62699  0.41412  1.0000
  C   C34       1.0  0.15522  0.59209  0.36198  1.0000
  C   C35       1.0  0.38504  0.75379  0.34210  1.0000
  C   C36       1.0  0.43479  0.84219  0.36191  1.0000
  C   C37       1.0  0.44255  0.81504  0.41402  1.0000
  C   C38       1.0  0.41794  0.77157  0.40475  1.0000
  C   C39       1.0  0.36669  0.61238  0.34211  1.0000
  C   C40       1.0  0.40533  0.56263  0.36195  1.0000
  C   C41       1.0  0.37042  0.55487  0.41406  1.0000
  C   C42       1.0  0.35157  0.57948  0.40475  1.0000
  H   H34       1.0  0.46560  0.82676  0.46113  1.0000
  H   H35       1.0  0.42348  0.75303  0.44644  1.0000
  H   H36       1.0  0.32751  0.57397  0.44651  1.0000
  H   H37       1.0  0.35913  0.53185  0.46123  1.0000
  H   H38       1.0  0.17065  0.63831  0.46123  1.0000
  H   H39       1.0  0.24439  0.66991  0.44653  1.0000
  H   H40       1.0  0.30218  0.71108  0.33813  1.0000
  H   H41       1.0  0.40682  0.69523  0.33808  1.0000
  H   H42       1.0  0.28634  0.59059  0.33813  1.0000
  C   C43       1.0  0.10948  0.57237  0.37658  1.0000
  H   H43       1.0  0.10341  0.56892  0.44825  1.0000
  C   C44       1.0  0.46081  0.88793  0.37652  1.0000
  H   H44       1.0  0.46343  0.89400  0.44819  1.0000
  C   C45       1.0  0.42506  0.53661  0.37658  1.0000
  H   H45       1.0  0.42852  0.53401  0.44825  1.0000
  C   C46       1.0  0.63926  0.28809  0.34551  1.0000
  C   C47       1.0  0.68318  0.30687  0.34589  1.0000
  C   C48       1.0  0.70931  0.35065  0.34548  1.0000
  C   C49       1.0  0.69053  0.37578  0.34589  1.0000
  C   C50       1.0  0.64675  0.35813  0.34551  1.0000
  C   C51       1.0  0.62162  0.31423  0.34588  1.0000
  C   C52       1.0  0.75330  0.36873  0.33656  1.0000
  C   C53       1.0  0.77579  0.35510  0.38948  1.0000
  C   C54       1.0  0.81889  0.37174  0.37735  1.0000
  C   C55       1.0  0.84068  0.40240  0.31176  1.0000
  C   C56       1.0  0.61335  0.24410  0.33655  1.0000
  C   C57       1.0  0.55963  0.15673  0.31172  1.0000
  C   C58       1.0  0.55075  0.17852  0.37729  1.0000
  C   C59       1.0  0.57722  0.22161  0.38944  1.0000
  C   C60       1.0  0.62867  0.38404  0.33654  1.0000
  C   C61       1.0  0.59500  0.43775  0.31174  1.0000
  C   C62       1.0  0.62567  0.44663  0.37732  1.0000
  C   C63       1.0  0.64230  0.42017  0.38946  1.0000
  H   H46       1.0  0.52500  0.16315  0.41697  1.0000
  H   H47       1.0  0.56996  0.23640  0.43780  1.0000
  H   H48       1.0  0.66433  0.42741  0.43784  1.0000
  H   H49       1.0  0.63604  0.47237  0.41702  1.0000
  H   H50       1.0  0.83426  0.36136  0.41705  1.0000
  H   H51       1.0  0.76100  0.33307  0.43784  1.0000
  H   H52       1.0  0.69634  0.28828  0.34313  1.0000
  H   H53       1.0  0.58987  0.30107  0.34311  1.0000
  H   H54       1.0  0.70912  0.40753  0.34312  1.0000
  C   C64       1.0  0.88618  0.42045  0.29823  1.0000
  H   H55       1.0  0.89677  0.40104  0.33121  1.0000
  C   C65       1.0  0.53218  0.11123  0.29817  1.0000
  H   H56       1.0  0.50218  0.10064  0.33114  1.0000
  C   C66       1.0  0.57694  0.46519  0.29820  1.0000
  H   H57       1.0  0.59636  0.49519  0.33116  1.0000
  C   C67       1.0  0.48259  0.52528  0.33400  1.0000
  C   C68       1.0  0.51238  0.48888  0.41716  1.0000
  C   C69       1.0  0.49569  0.51577  0.41460  1.0000
  H   H58       1.0  0.49327  0.52905  0.47238  1.0000
  C   C70       1.0  0.52562  0.48083  0.50482  1.0000
  H   H59       1.0  0.53792  0.45961  0.50075  1.0000
  H   H60       1.0  0.49905  0.46715  0.55020  1.0000
  H   H61       1.0  0.54988  0.51015  0.53310  1.0000
  N   N4        1.0  0.46651  0.55279  0.33385  1.0000
  H   H62       1.0  0.48791  0.58068  0.36205  1.0000
  C   C71       1.0  0.47212  0.95679  0.33397  1.0000
  C   C72       1.0  0.50852  0.02298  0.41712  1.0000
  C   C73       1.0  0.48163  0.97939  0.41457  1.0000
  H   H63       1.0  0.46837  0.96369  0.47236  1.0000
  C   C74       1.0  0.51658  0.04426  0.50479  1.0000
  H   H64       1.0  0.53780  0.07779  0.50072  1.0000
  H   H65       1.0  0.53028  0.03139  0.55015  1.0000
  H   H66       1.0  0.48726  0.03920  0.53310  1.0000
  N   N5        1.0  0.44462  0.91319  0.33383  1.0000
  H   H67       1.0  0.41673  0.90670  0.36206  1.0000
  C   C75       1.0  0.04062  0.51483  0.33402  1.0000
  C   C76       1.0  0.97442  0.48504  0.41718  1.0000
  C   C77       1.0  0.01801  0.50173  0.41462  1.0000
  H   H68       1.0  0.03371  0.50416  0.47241  1.0000
  C   C78       1.0  0.95314  0.47180  0.50484  1.0000
  H   H69       1.0  0.91961  0.45950  0.50077  1.0000
  H   H70       1.0  0.96601  0.49837  0.55021  1.0000
  H   H71       1.0  0.95820  0.44755  0.53314  1.0000
  N   N6        1.0  0.08422  0.53092  0.33388  1.0000
  H   H72       1.0  0.09070  0.50952  0.36210  1.0000
