data_image0
_chemical_formula_structural       CH2C9H4CNCH2CHC7H4CNCH2CHC4H2C2H2NC4H2C2H2NC2HC2H2NC11H6NCNC2H2C11H6NCNC2H2C6H4NC6H4NC5H3N
_chemical_formula_sum              "C84 H54 N12"
_cell_length_a       44.2431
_cell_length_b       44.2431
_cell_length_c       14.9729
_cell_angle_alpha    90
_cell_angle_beta     90
_cell_angle_gamma    120

_space_group_name_H-M_alt    "P 1"
_space_group_IT_number       1

loop_
  _space_group_symop_operation_xyz
  'x, y, z'

loop_
  _atom_site_type_symbol
  _atom_site_label
  _atom_site_symmetry_multiplicity
  _atom_site_fract_x
  _atom_site_fract_y
  _atom_site_fract_z
  _atom_site_occupancy
  C   C1        1.0  0.02026  0.50936  0.32743  1.0000
  H   H1        1.0  0.02562  0.50932  0.18618  1.0000
  H   H2        1.0  0.02778  0.51625  0.46794  1.0000
  C   C2        1.0  0.03876  0.51710  0.24558  1.0000
  C   C3        1.0  0.03997  0.52039  0.40741  1.0000
  C   C4        1.0  0.37746  0.63746  0.33520  1.0000
  C   C5        1.0  0.36480  0.74046  0.33512  1.0000
  C   C6        1.0  0.42062  0.60643  0.35280  1.0000
  C   C7        1.0  0.43489  0.64285  0.36152  1.0000
  C   C8        1.0  0.41374  0.65809  0.35218  1.0000
  C   C9        1.0  0.40130  0.76291  0.32567  1.0000
  C   C10       1.0  0.41658  0.79935  0.33406  1.0000
  H   H3        1.0  0.42520  0.68451  0.36046  1.0000
  H   H4        1.0  0.46084  0.65868  0.37572  1.0000
  H   H5        1.0  0.41741  0.75298  0.31360  1.0000
  H   H6        1.0  0.44314  0.81453  0.32883  1.0000
  C   C11       1.0  0.34948  0.70343  0.33094  1.0000
  N   N1        1.0  0.36946  0.68800  0.33133  1.0000
  C   C12       1.0  0.35574  0.65278  0.33098  1.0000
  H   H7        1.0  0.24928  0.66489  0.31364  1.0000
  H   H8        1.0  0.18774  0.62908  0.32891  1.0000
  C   C13       1.0  0.44142  0.59171  0.36754  1.0000
  H   H9        1.0  0.45919  0.60149  0.41602  1.0000
  C   C14       1.0  0.62352  0.36244  0.34071  1.0000
  C   C15       1.0  0.63982  0.26154  0.34060  1.0000
  C   C16       1.0  0.57792  0.39106  0.32806  1.0000
  C   C17       1.0  0.56450  0.35457  0.32931  1.0000
  C   C18       1.0  0.58682  0.34057  0.33575  1.0000
  C   C19       1.0  0.60327  0.23831  0.34030  1.0000
  C   C20       1.0  0.58921  0.20195  0.33405  1.0000
  H   H10       1.0  0.57573  0.31400  0.33544  1.0000
  H   H11       1.0  0.53818  0.33765  0.32478  1.0000
  H   H12       1.0  0.58625  0.24759  0.34347  1.0000
  H   H13       1.0  0.56264  0.18632  0.33241  1.0000
  C   C21       1.0  0.65415  0.29849  0.34359  1.0000
  N   N2        1.0  0.63338  0.31303  0.34336  1.0000
  C   C22       1.0  0.64614  0.34811  0.34363  1.0000
  H   H14       1.0  0.75466  0.33911  0.34337  1.0000
  H   H15       1.0  0.81593  0.37676  0.33230  1.0000
  C   C23       1.0  0.55524  0.40405  0.31779  1.0000
  H   H16       1.0  0.53140  0.38817  0.29417  1.0000
  C   C24       1.0  0.45673  0.54978  0.32374  1.0000
  C   C25       1.0  0.49289  0.51135  0.32748  1.0000
  C   C26       1.0  0.48509  0.52205  0.24562  1.0000
  C   C27       1.0  0.46705  0.54074  0.24375  1.0000
  H   H17       1.0  0.49283  0.51665  0.18622  1.0000
  H   H18       1.0  0.46184  0.54807  0.18345  1.0000
  C   C28       1.0  0.51918  0.44462  0.27153  1.0000
  C   C29       1.0  0.50190  0.46402  0.26915  1.0000
  H   H19       1.0  0.51223  0.42493  0.22626  1.0000
  H   H20       1.0  0.48231  0.45716  0.22349  1.0000
  N   N3        1.0  0.43905  0.56675  0.31853  1.0000
  C   C30       1.0  0.45249  0.90740  0.32362  1.0000
  C   C31       1.0  0.49093  0.98199  0.32740  1.0000
  C   C32       1.0  0.48015  0.96351  0.24554  1.0000
  C   C33       1.0  0.46146  0.92678  0.24364  1.0000
  H   H21       1.0  0.48550  0.97665  0.18616  1.0000
  H   H22       1.0  0.45407  0.91425  0.18334  1.0000
  C   C34       1.0  0.55759  0.07503  0.27134  1.0000
  C   C35       1.0  0.53819  0.03834  0.26893  1.0000
  H   H23       1.0  0.57724  0.08778  0.22597  1.0000
  H   H24       1.0  0.54503  0.02563  0.22319  1.0000
  N   N4        1.0  0.43550  0.87276  0.31836  1.0000
  C   C36       1.0  0.09486  0.54550  0.32370  1.0000
  C   C37       1.0  0.07549  0.53514  0.24371  1.0000
  H   H25       1.0  0.08802  0.54029  0.18341  1.0000
  C   C38       1.0  0.92724  0.48302  0.27136  1.0000
  C   C39       1.0  0.96392  0.50030  0.26897  1.0000
  H   H26       1.0  0.91449  0.48994  0.22601  1.0000
  H   H27       1.0  0.97664  0.51987  0.22327  1.0000
  N   N5        1.0  0.12949  0.56319  0.31846  1.0000
  C   C40       1.0  0.26180  0.62480  0.33515  1.0000
  C   C41       1.0  0.23935  0.63885  0.32573  1.0000
  C   C42       1.0  0.20291  0.61769  0.33414  1.0000
  C   C43       1.0  0.18761  0.58166  0.35276  1.0000
  C   C44       1.0  0.20976  0.56739  0.36156  1.0000
  C   C45       1.0  0.24614  0.58852  0.35215  1.0000
  C   C46       1.0  0.36342  0.60096  0.32584  1.0000
  C   C47       1.0  0.38458  0.58568  0.33426  1.0000
  C   C48       1.0  0.39584  0.81465  0.35271  1.0000
  C   C49       1.0  0.35942  0.79250  0.36152  1.0000
  C   C50       1.0  0.34418  0.75612  0.35211  1.0000
  H   H28       1.0  0.19963  0.54144  0.37581  1.0000
  H   H29       1.0  0.26111  0.57708  0.36054  1.0000
  H   H30       1.0  0.33738  0.58485  0.31373  1.0000
  H   H31       1.0  0.37320  0.55913  0.32901  1.0000
  H   H32       1.0  0.34361  0.80263  0.37576  1.0000
  H   H33       1.0  0.31776  0.74115  0.36053  1.0000
  N   N6        1.0  0.32034  0.63280  0.33135  1.0000
  C   C51       1.0  0.29884  0.64652  0.33095  1.0000
  N   N7        1.0  0.31426  0.68192  0.33131  1.0000
  C   C52       1.0  0.41057  0.85016  0.36745  1.0000
  C   C53       1.0  0.15210  0.56087  0.36756  1.0000
  H   H34       1.0  0.14411  0.54313  0.41613  1.0000
  H   H35       1.0  0.40085  0.85816  0.41609  1.0000
  C   C54       1.0  0.74072  0.37874  0.34062  1.0000
  C   C55       1.0  0.76394  0.36541  0.34026  1.0000
  C   C56       1.0  0.80030  0.38770  0.33400  1.0000
  C   C57       1.0  0.81494  0.42433  0.32793  1.0000
  C   C58       1.0  0.79187  0.43775  0.32913  1.0000
  C   C59       1.0  0.75556  0.41544  0.33560  1.0000
  C   C60       1.0  0.63685  0.39899  0.34031  1.0000
  C   C61       1.0  0.61455  0.41305  0.33408  1.0000
  C   C62       1.0  0.61120  0.18732  0.32792  1.0000
  C   C63       1.0  0.64769  0.21039  0.32910  1.0000
  C   C64       1.0  0.66168  0.24670  0.33554  1.0000
  H   H36       1.0  0.80127  0.46407  0.32460  1.0000
  H   H37       1.0  0.74008  0.42653  0.33528  1.0000
  H   H38       1.0  0.66315  0.41601  0.34333  1.0000
  H   H39       1.0  0.62549  0.43961  0.33227  1.0000
  H   H40       1.0  0.66461  0.20099  0.32451  1.0000
  H   H41       1.0  0.68826  0.26219  0.33519  1.0000
  N   N8        1.0  0.68146  0.36888  0.34337  1.0000
  C   C65       1.0  0.70377  0.35611  0.34359  1.0000
  N   N9        1.0  0.68922  0.32080  0.34332  1.0000
  C   C66       1.0  0.59821  0.15165  0.31771  1.0000
  C   C67       1.0  0.85061  0.44700  0.31769  1.0000
  H   H42       1.0  0.85858  0.47084  0.29397  1.0000
  H   H43       1.0  0.61407  0.14367  0.29402  1.0000
  C   C68       1.0  0.46402  0.53891  0.40572  1.0000
  C   C69       1.0  0.48192  0.52009  0.40747  1.0000
  C   C70       1.0  0.51073  0.49188  0.32948  1.0000
  C   C71       1.0  0.53775  0.49972  0.39189  1.0000
  C   C72       1.0  0.55519  0.48044  0.39398  1.0000
  C   C73       1.0  0.54583  0.45235  0.33476  1.0000
  H   H44       1.0  0.54551  0.52008  0.43553  1.0000
  H   H45       1.0  0.57471  0.48696  0.43969  1.0000
  H   H46       1.0  0.45588  0.54417  0.46465  1.0000
  H   H47       1.0  0.48612  0.51209  0.46801  1.0000
  N   N10       1.0  0.56358  0.43540  0.33971  1.0000
  C   C74       1.0  0.46344  0.92556  0.40559  1.0000
  C   C75       1.0  0.48227  0.96228  0.40736  1.0000
  C   C76       1.0  0.51040  0.01931  0.32941  1.0000
  C   C77       1.0  0.50260  0.03847  0.39197  1.0000
  C   C78       1.0  0.52187  0.07520  0.39407  1.0000
  C   C79       1.0  0.54991  0.09394  0.33470  1.0000
  H   H48       1.0  0.48229  0.02587  0.43573  1.0000
  H   H49       1.0  0.51539  0.08819  0.43989  1.0000
  H   H50       1.0  0.45822  0.91215  0.46450  1.0000
  H   H51       1.0  0.49031  0.97446  0.46790  1.0000
  N   N11       1.0  0.56686  0.12864  0.33965  1.0000
  C   C80       1.0  0.07669  0.53828  0.40566  1.0000
  C   C81       1.0  0.98295  0.49152  0.32942  1.0000
  C   C82       1.0  0.96377  0.46453  0.39191  1.0000
  C   C83       1.0  0.92705  0.44709  0.39402  1.0000
  C   C84       1.0  0.90832  0.45640  0.33466  1.0000
  H   H52       1.0  0.97637  0.45682  0.43570  1.0000
  H   H53       1.0  0.91405  0.42761  0.43982  1.0000
  H   H54       1.0  0.09009  0.54647  0.46458  1.0000
  N   N12       1.0  0.87362  0.43866  0.33963  1.0000
