data_image0
_chemical_formula_structural       C6H2C3H2NHC2H2C3H2NHC2H2C3H2NHC5H3C2O3C5H3C2O3C7H2N2O4NHC7H2N2O4NHC7H2N2O4NH
_chemical_formula_sum              "C54 H30 N12 O18"
_cell_length_a       29.4257
_cell_length_b       29.4256
_cell_length_c       15.0609
_cell_angle_alpha    90
_cell_angle_beta     90
_cell_angle_gamma    120

_space_group_name_H-M_alt    "P 1"
_space_group_IT_number       1

loop_
  _space_group_symop_operation_xyz
  'x, y, z'

loop_
  _atom_site_type_symbol
  _atom_site_label
  _atom_site_symmetry_multiplicity
  _atom_site_fract_x
  _atom_site_fract_y
  _atom_site_fract_z
  _atom_site_occupancy
  C   C1        1.0  0.36781  0.64717  0.30721  1.0000
  C   C2        1.0  0.40546  0.63024  0.31641  1.0000
  C   C3        1.0  0.63790  0.36115  0.32255  1.0000
  C   C4        1.0  0.61205  0.39076  0.31996  1.0000
  C   C5        1.0  0.57412  0.51636  0.29329  1.0000
  C   C6        1.0  0.60715  0.49494  0.30034  1.0000
  H   H1        1.0  0.57910  0.54053  0.24078  1.0000
  H   H2        1.0  0.63486  0.50317  0.25234  1.0000
  C   C7        1.0  0.42890  0.56203  0.31209  1.0000
  C   C8        1.0  0.43608  0.53145  0.24757  1.0000
  C   C9        1.0  0.47041  0.51220  0.26322  1.0000
  H   H3        1.0  0.41729  0.52413  0.18764  1.0000
  H   H4        1.0  0.47511  0.49070  0.21431  1.0000
  N   N1        1.0  0.39574  0.58110  0.29514  1.0000
  H   H5        1.0  0.36509  0.55912  0.25873  1.0000
  C   C10       1.0  0.47829  0.05670  0.29447  1.0000
  C   C11       1.0  0.49973  0.11115  0.30168  1.0000
  H   H6        1.0  0.45410  0.03756  0.24195  1.0000
  H   H7        1.0  0.49155  0.13069  0.25372  1.0000
  C   C12       1.0  0.43292  0.86586  0.31247  1.0000
  C   C13       1.0  0.46346  0.90371  0.24803  1.0000
  C   C14       1.0  0.48261  0.95725  0.26384  1.0000
  H   H8        1.0  0.47078  0.89231  0.18802  1.0000
  H   H9        1.0  0.50407  0.98352  0.21500  1.0000
  N   N2        1.0  0.41391  0.81366  0.29538  1.0000
  H   H10       1.0  0.43596  0.80506  0.25902  1.0000
  C   C15       1.0  0.93832  0.42105  0.29309  1.0000
  C   C16       1.0  0.88387  0.38794  0.30012  1.0000
  H   H11       1.0  0.95754  0.41609  0.24060  1.0000
  H   H12       1.0  0.86444  0.36022  0.25214  1.0000
  C   C17       1.0  0.12916  0.56619  0.31194  1.0000
  C   C18       1.0  0.09141  0.55905  0.24742  1.0000
  C   C19       1.0  0.03783  0.52476  0.26308  1.0000
  H   H13       1.0  0.10290  0.57783  0.18749  1.0000
  H   H14       1.0  0.01164  0.52007  0.21417  1.0000
  N   N3        1.0  0.18140  0.59931  0.29498  1.0000
  H   H15       1.0  0.19009  0.62995  0.25855  1.0000
  C   C20       1.0  0.34784  0.71963  0.30729  1.0000
  C   C21       1.0  0.29376  0.68175  0.30741  1.0000
  C   C22       1.0  0.27537  0.62720  0.30717  1.0000
  C   C23       1.0  0.31326  0.61101  0.30739  1.0000
  C   C24       1.0  0.38401  0.70126  0.30734  1.0000
  H   H16       1.0  0.30064  0.57183  0.31190  1.0000
  H   H17       1.0  0.42318  0.72781  0.31200  1.0000
  H   H18       1.0  0.26720  0.69436  0.31195  1.0000
  C   C25       1.0  0.36475  0.77420  0.31652  1.0000
  C   C26       1.0  0.22079  0.58956  0.31631  1.0000
  O   O1        1.0  0.45388  0.66556  0.34686  1.0000
  O   O2        1.0  0.32941  0.78729  0.34695  1.0000
  O   O3        1.0  0.20766  0.54114  0.34679  1.0000
  C   C27       1.0  0.63371  0.27556  0.32298  1.0000
  C   C28       1.0  0.68908  0.30165  0.32254  1.0000
  C   C29       1.0  0.71930  0.35697  0.32251  1.0000
  C   C30       1.0  0.69322  0.38626  0.32206  1.0000
  C   C31       1.0  0.60861  0.30578  0.32253  1.0000
  H   H19       1.0  0.71483  0.42643  0.32053  1.0000
  H   H20       1.0  0.56844  0.28722  0.32133  1.0000
  H   H21       1.0  0.70765  0.28005  0.32135  1.0000
  C   C32       1.0  0.60414  0.22010  0.32081  1.0000
  C   C33       1.0  0.77475  0.38278  0.31974  1.0000
  O   O4        1.0  0.56870  0.37260  0.26815  1.0000
  O   O5        1.0  0.62232  0.19477  0.26941  1.0000
  O   O6        1.0  0.79985  0.42582  0.26723  1.0000
  C   C34       1.0  0.60078  0.46067  0.37070  1.0000
  C   C35       1.0  0.56142  0.44820  0.43552  1.0000
  C   C36       1.0  0.52812  0.46979  0.42719  1.0000
  C   C37       1.0  0.53370  0.50349  0.35590  1.0000
  C   C38       1.0  0.49804  0.52231  0.34442  1.0000
  C   C39       1.0  0.48963  0.55120  0.41154  1.0000
  C   C40       1.0  0.45470  0.57009  0.39469  1.0000
  H   H22       1.0  0.44827  0.59025  0.44375  1.0000
  H   H23       1.0  0.49823  0.45899  0.47190  1.0000
  N   N4        1.0  0.51749  0.56251  0.49281  1.0000
  N   N5        1.0  0.55511  0.41274  0.50425  1.0000
  O   O7        1.0  0.48685  0.54411  0.55794  1.0000
  O   O8        1.0  0.56068  0.43359  0.57926  1.0000
  O   O9        1.0  0.54656  0.61108  0.50384  1.0000
  O   O10       1.0  0.51069  0.37208  0.50099  1.0000
  N   N6        1.0  0.62870  0.43535  0.36841  1.0000
  H   H24       1.0  0.65501  0.44413  0.41463  1.0000
  C   C41       1.0  0.53416  0.13899  0.37191  1.0000
  C   C42       1.0  0.54667  0.11203  0.43653  1.0000
  C   C43       1.0  0.52498  0.05713  0.42813  1.0000
  C   C44       1.0  0.49123  0.02909  0.35686  1.0000
  C   C45       1.0  0.47246  0.97465  0.34515  1.0000
  C   C46       1.0  0.44364  0.93727  0.41219  1.0000
  C   C47       1.0  0.42485  0.88348  0.39516  1.0000
  H   H25       1.0  0.40471  0.85682  0.44417  1.0000
  H   H26       1.0  0.53587  0.03802  0.47262  1.0000
  N   N7        1.0  0.43230  0.95369  0.49356  1.0000
  N   N8        1.0  0.58225  0.14112  0.50517  1.0000
  O   O11       1.0  0.45075  0.94144  0.55859  1.0000
  O   O12       1.0  0.56150  0.12585  0.58024  1.0000
  O   O13       1.0  0.38372  0.93410  0.50464  1.0000
  O   O14       1.0  0.62287  0.13729  0.50167  1.0000
  N   N9        1.0  0.55970  0.19221  0.36965  1.0000
  H   H27       1.0  0.55056  0.20988  0.41509  1.0000
  C   C48       1.0  0.85593  0.39425  0.37049  1.0000
  C   C49       1.0  0.88279  0.43360  0.43535  1.0000
  C   C50       1.0  0.93767  0.46698  0.42702  1.0000
  C   C51       1.0  0.96581  0.46146  0.35572  1.0000
  C   C52       1.0  0.02030  0.49714  0.34429  1.0000
  C   C53       1.0  0.05758  0.50553  0.41142  1.0000
  C   C54       1.0  0.11141  0.54042  0.39455  1.0000
  H   H28       1.0  0.13800  0.54684  0.44363  1.0000
  H   H29       1.0  0.95671  0.49685  0.47176  1.0000
  N   N10       1.0  0.04102  0.47768  0.49269  1.0000
  N   N11       1.0  0.85360  0.43984  0.50410  1.0000
  O   O15       1.0  0.05327  0.50832  0.55782  1.0000
  O   O16       1.0  0.86889  0.43429  0.57910  1.0000
  O   O17       1.0  0.06048  0.44858  0.50374  1.0000
  O   O18       1.0  0.85727  0.48423  0.50088  1.0000
  N   N12       1.0  0.80269  0.36615  0.36825  1.0000
  H   H30       1.0  0.78523  0.34043  0.41532  1.0000
