data_image0
_chemical_formula_structural       C4HCNHCH3C4HCNHCH3C4HCNHCH3CNCNCNC18H12CNCNCNC18H12CNC4H2CH3CNC4H2CH3CNC4H2CH3
_chemical_formula_sum              "C78 H54 N12"
_cell_length_a       37.0101
_cell_length_b       37.0101
_cell_length_c       14.9756
_cell_angle_alpha    90
_cell_angle_beta     90
_cell_angle_gamma    120

_space_group_name_H-M_alt    "P 1"
_space_group_IT_number       1

loop_
  _space_group_symop_operation_xyz
  'x, y, z'

loop_
  _atom_site_type_symbol
  _atom_site_label
  _atom_site_symmetry_multiplicity
  _atom_site_fract_x
  _atom_site_fract_y
  _atom_site_fract_z
  _atom_site_occupancy
  C   C1        1.0  0.44508  0.55656  0.32994  1.0000
  C   C2        1.0  0.48928  0.51133  0.32924  1.0000
  C   C3        1.0  0.46425  0.50899  0.25367  1.0000
  C   C4        1.0  0.44242  0.53148  0.25643  1.0000
  H   H1        1.0  0.42462  0.53028  0.20292  1.0000
  C   C5        1.0  0.53221  0.44352  0.26812  1.0000
  N   N1        1.0  0.51237  0.46577  0.27215  1.0000
  H   H2        1.0  0.52918  0.42661  0.21183  1.0000
  C   C6        1.0  0.45952  0.48453  0.17101  1.0000
  H   H3        1.0  0.48997  0.49566  0.14003  1.0000
  H   H4        1.0  0.43955  0.48717  0.12083  1.0000
  H   H5        1.0  0.44556  0.45150  0.18739  1.0000
  C   C7        1.0  0.44547  0.88892  0.32994  1.0000
  C   C8        1.0  0.49070  0.97835  0.32923  1.0000
  C   C9        1.0  0.49304  0.95566  0.25366  1.0000
  C   C10       1.0  0.47056  0.91135  0.25643  1.0000
  H   H6        1.0  0.47175  0.89474  0.20291  1.0000
  C   C11       1.0  0.55851  0.08910  0.26811  1.0000
  N   N2        1.0  0.53626  0.04701  0.27214  1.0000
  H   H7        1.0  0.57542  0.10298  0.21182  1.0000
  C   C12       1.0  0.51750  0.97540  0.17101  1.0000
  H   H8        1.0  0.50638  0.99472  0.14002  1.0000
  H   H9        1.0  0.51487  0.95278  0.12084  1.0000
  H   H10       1.0  0.55053  0.99447  0.18740  1.0000
  C   C13       1.0  0.11311  0.55696  0.32995  1.0000
  C   C14       1.0  0.02368  0.51276  0.32924  1.0000
  C   C15       1.0  0.04637  0.53778  0.25366  1.0000
  C   C16       1.0  0.09069  0.55961  0.25643  1.0000
  H   H11       1.0  0.10729  0.57741  0.20290  1.0000
  C   C17       1.0  0.91294  0.46984  0.26811  1.0000
  N   N3        1.0  0.95502  0.48968  0.27215  1.0000
  H   H12       1.0  0.89906  0.47288  0.21182  1.0000
  C   C18       1.0  0.02664  0.54250  0.17099  1.0000
  H   H13       1.0  0.00731  0.51204  0.14003  1.0000
  H   H14       1.0  0.04926  0.56247  0.12080  1.0000
  H   H15       1.0  0.00757  0.55646  0.18734  1.0000
  C   C19       1.0  0.35613  0.71051  0.33621  1.0000
  N   N4        1.0  0.37638  0.68833  0.33614  1.0000
  C   C20       1.0  0.35600  0.64590  0.33621  1.0000
  N   N5        1.0  0.31358  0.62565  0.33614  1.0000
  C   C21       1.0  0.29152  0.64603  0.33621  1.0000
  N   N6        1.0  0.31370  0.68846  0.33614  1.0000
  C   C22       1.0  0.37819  0.62361  0.33536  1.0000
  C   C23       1.0  0.42139  0.64372  0.35516  1.0000
  C   C24       1.0  0.44327  0.62169  0.35435  1.0000
  C   C25       1.0  0.42291  0.57883  0.33208  1.0000
  C   C26       1.0  0.37985  0.55865  0.31180  1.0000
  C   C27       1.0  0.35785  0.58054  0.31418  1.0000
  C   C28       1.0  0.37843  0.75499  0.33536  1.0000
  C   C29       1.0  0.42149  0.77772  0.31419  1.0000
  C   C30       1.0  0.44338  0.82161  0.31178  1.0000
  C   C31       1.0  0.42320  0.84448  0.33207  1.0000
  C   C32       1.0  0.38034  0.82199  0.35435  1.0000
  C   C33       1.0  0.35831  0.77807  0.35515  1.0000
  C   C34       1.0  0.24705  0.62385  0.33535  1.0000
  C   C35       1.0  0.22432  0.64418  0.31416  1.0000
  C   C36       1.0  0.18043  0.62218  0.31179  1.0000
  C   C37       1.0  0.15755  0.57913  0.33209  1.0000
  C   C38       1.0  0.18004  0.55877  0.35437  1.0000
  C   C39       1.0  0.22396  0.58064  0.35514  1.0000
  H   H16       1.0  0.47450  0.83676  0.29643  1.0000
  H   H17       1.0  0.43746  0.76258  0.29886  1.0000
  H   H18       1.0  0.36452  0.83741  0.36846  1.0000
  H   H19       1.0  0.32729  0.76319  0.37129  1.0000
  H   H20       1.0  0.23946  0.67529  0.29888  1.0000
  H   H21       1.0  0.16528  0.63816  0.29643  1.0000
  H   H22       1.0  0.23884  0.56452  0.37130  1.0000
  H   H23       1.0  0.16462  0.52752  0.36847  1.0000
  H   H24       1.0  0.32674  0.56457  0.29886  1.0000
  H   H25       1.0  0.36388  0.52753  0.29642  1.0000
  H   H26       1.0  0.47452  0.63751  0.36846  1.0000
  H   H27       1.0  0.43752  0.67474  0.37130  1.0000
  C   C40       1.0  0.64629  0.29112  0.33375  1.0000
  N   N7        1.0  0.62606  0.31332  0.33383  1.0000
  C   C41       1.0  0.64646  0.35575  0.33375  1.0000
  N   N8        1.0  0.68889  0.37597  0.33381  1.0000
  C   C42       1.0  0.71091  0.35557  0.33374  1.0000
  N   N9        1.0  0.68871  0.31314  0.33381  1.0000
  C   C43       1.0  0.62430  0.37807  0.33459  1.0000
  C   C44       1.0  0.58112  0.35800  0.31460  1.0000
  C   C45       1.0  0.55927  0.38007  0.31532  1.0000
  C   C46       1.0  0.57965  0.42290  0.33777  1.0000
  C   C47       1.0  0.62267  0.44303  0.35830  1.0000
  C   C48       1.0  0.64465  0.42112  0.35595  1.0000
  C   C49       1.0  0.62396  0.24664  0.33458  1.0000
  C   C50       1.0  0.58092  0.22394  0.35596  1.0000
  C   C51       1.0  0.55900  0.18005  0.35828  1.0000
  C   C52       1.0  0.57913  0.15715  0.33775  1.0000
  C   C53       1.0  0.62196  0.17961  0.31530  1.0000
  C   C54       1.0  0.64403  0.22353  0.31458  1.0000
  C   C55       1.0  0.75539  0.37773  0.33456  1.0000
  C   C56       1.0  0.77810  0.35739  0.35591  1.0000
  C   C57       1.0  0.82199  0.37936  0.35823  1.0000
  C   C58       1.0  0.84488  0.42239  0.33772  1.0000
  C   C59       1.0  0.82242  0.44275  0.31524  1.0000
  C   C60       1.0  0.77850  0.42091  0.31456  1.0000
  H   H28       1.0  0.52789  0.16491  0.37381  1.0000
  H   H29       1.0  0.56498  0.23909  0.37142  1.0000
  H   H30       1.0  0.63775  0.16417  0.30100  1.0000
  H   H31       1.0  0.67503  0.23840  0.29827  1.0000
  H   H32       1.0  0.76294  0.32629  0.37137  1.0000
  H   H33       1.0  0.83713  0.36340  0.37377  1.0000
  H   H34       1.0  0.76362  0.43703  0.29829  1.0000
  H   H35       1.0  0.83786  0.47399  0.30103  1.0000
  H   H36       1.0  0.67574  0.43705  0.37142  1.0000
  H   H37       1.0  0.63864  0.47414  0.37381  1.0000
  H   H38       1.0  0.52804  0.36429  0.30101  1.0000
  H   H39       1.0  0.56500  0.32700  0.29828  1.0000
  C   C61       1.0  0.47065  0.55850  0.40133  1.0000
  N   N10       1.0  0.49045  0.53622  0.39733  1.0000
  C   C62       1.0  0.51329  0.49041  0.34053  1.0000
  C   C63       1.0  0.53809  0.49252  0.41636  1.0000
  C   C64       1.0  0.55994  0.47006  0.41360  1.0000
  C   C65       1.0  0.55751  0.44520  0.33984  1.0000
  H   H40       1.0  0.57757  0.47108  0.46731  1.0000
  H   H41       1.0  0.47382  0.57554  0.45750  1.0000
  C   C66       1.0  0.54251  0.51668  0.49933  1.0000
  H   H42       1.0  0.51193  0.50553  0.52970  1.0000
  H   H43       1.0  0.55664  0.54978  0.48350  1.0000
  H   H44       1.0  0.56221  0.51377  0.54981  1.0000
  C   C67       1.0  0.44353  0.91255  0.40132  1.0000
  N   N11       1.0  0.46581  0.95464  0.39732  1.0000
  C   C68       1.0  0.51162  0.02329  0.34052  1.0000
  C   C69       1.0  0.50951  0.04598  0.41635  1.0000
  C   C70       1.0  0.53198  0.09029  0.41360  1.0000
  C   C71       1.0  0.55683  0.11271  0.33983  1.0000
  H   H45       1.0  0.53096  0.10690  0.46730  1.0000
  H   H46       1.0  0.42649  0.89868  0.45748  1.0000
  C   C72       1.0  0.48536  0.02624  0.49933  1.0000
  H   H47       1.0  0.49651  0.00681  0.52969  1.0000
  H   H48       1.0  0.45225  0.00726  0.48351  1.0000
  H   H49       1.0  0.48827  0.04884  0.54981  1.0000
  C   C73       1.0  0.08948  0.53140  0.40134  1.0000
  N   N12       1.0  0.04739  0.51160  0.39734  1.0000
  C   C74       1.0  0.97874  0.48874  0.34051  1.0000
  C   C75       1.0  0.95605  0.46393  0.41633  1.0000
  C   C76       1.0  0.91174  0.44209  0.41357  1.0000
  C   C77       1.0  0.88932  0.44453  0.33981  1.0000
  H   H50       1.0  0.89513  0.42445  0.46726  1.0000
  H   H51       1.0  0.10334  0.52823  0.45752  1.0000
  C   C78       1.0  0.97579  0.45950  0.49930  1.0000
  H   H52       1.0  0.99521  0.49008  0.52970  1.0000
  H   H53       1.0  0.99477  0.44538  0.48345  1.0000
  H   H54       1.0  0.95318  0.43979  0.54976  1.0000
