data_image0
_chemical_formula_structural       C4H2C4H2N2C4H2C4H2N2C4H2C4H2N2C3HOHCHC3HOHCHC3HOHCHC3HOHCHC3HOHCHC3HOHCHC2HC2HN2C2HC2HN2C2HC2HN2C3OH2CHC3OH2CHC3OH2CHC3OH2CHC3OH2CHC3OH2CH
_chemical_formula_sum              "C84 H54 N12 O12"
_cell_length_a       32.0712
_cell_length_b       32.0712
_cell_length_c       15.1108
_cell_angle_alpha    90
_cell_angle_beta     90
_cell_angle_gamma    120

_space_group_name_H-M_alt    "P 1"
_space_group_IT_number       1

loop_
  _space_group_symop_operation_xyz
  'x, y, z'

loop_
  _atom_site_type_symbol
  _atom_site_label
  _atom_site_symmetry_multiplicity
  _atom_site_fract_x
  _atom_site_fract_y
  _atom_site_fract_z
  _atom_site_occupancy
  C   C1        1.0  0.96881  0.48315  0.32560  1.0000
  C   C2        1.0  0.86651  0.43085  0.32559  1.0000
  C   C3        1.0  0.89212  0.40604  0.33532  1.0000
  C   C4        1.0  0.94252  0.43279  0.34312  1.0000
  H   H1        1.0  0.95978  0.41412  0.35739  1.0000
  H   H2        1.0  0.82964  0.41202  0.32574  1.0000
  C   C5        1.0  0.02017  0.50946  0.32555  1.0000
  C   C6        1.0  0.04647  0.55983  0.34306  1.0000
  C   C7        1.0  0.09686  0.58658  0.33522  1.0000
  C   C8        1.0  0.12247  0.56177  0.32545  1.0000
  H   H3        1.0  0.02920  0.57849  0.35737  1.0000
  H   H4        1.0  0.15933  0.58059  0.32560  1.0000
  N   N1        1.0  0.11966  0.63523  0.33899  1.0000
  N   N2        1.0  0.86932  0.35738  0.33908  1.0000
  C   C9        1.0  0.50767  0.48383  0.32538  1.0000
  C   C10       1.0  0.55996  0.43381  0.32548  1.0000
  C   C11       1.0  0.58477  0.48424  0.33518  1.0000
  C   C12       1.0  0.55804  0.50790  0.34284  1.0000
  H   H5        1.0  0.57669  0.54382  0.35724  1.0000
  H   H6        1.0  0.57878  0.41577  0.32570  1.0000
  C   C13       1.0  0.48136  0.50889  0.32535  1.0000
  C   C14       1.0  0.43100  0.48482  0.34281  1.0000
  C   C15       1.0  0.40426  0.50848  0.33516  1.0000
  C   C16       1.0  0.42909  0.55892  0.32542  1.0000
  H   H7        1.0  0.41234  0.44891  0.35725  1.0000
  H   H8        1.0  0.41028  0.57696  0.32566  1.0000
  N   N3        1.0  0.35561  0.48265  0.33897  1.0000
  N   N4        1.0  0.63343  0.51009  0.33899  1.0000
  C   C17       1.0  0.50701  0.02201  0.32532  1.0000
  C   C18       1.0  0.55702  0.12432  0.32534  1.0000
  C   C19       1.0  0.50660  0.09871  0.33508  1.0000
  C   C20       1.0  0.48294  0.04831  0.34279  1.0000
  H   H9        1.0  0.44703  0.03104  0.35726  1.0000
  H   H10       1.0  0.57506  0.16117  0.32557  1.0000
  C   C21       1.0  0.48196  0.97065  0.32539  1.0000
  C   C22       1.0  0.50603  0.94436  0.34287  1.0000
  C   C23       1.0  0.48238  0.89396  0.33524  1.0000
  C   C24       1.0  0.43195  0.86834  0.32554  1.0000
  H   H11       1.0  0.54195  0.96164  0.35726  1.0000
  H   H12       1.0  0.41391  0.83149  0.32577  1.0000
  N   N5        1.0  0.50823  0.87116  0.33905  1.0000
  N   N6        1.0  0.48075  0.12151  0.33893  1.0000
  C   C25       1.0  0.27797  0.47663  0.30713  1.0000
  C   C26       1.0  0.24725  0.47497  0.23830  1.0000
  C   C27       1.0  0.20325  0.47310  0.25617  1.0000
  H   H13       1.0  0.25776  0.47719  0.17358  1.0000
  O   O1        1.0  0.17900  0.47702  0.18571  1.0000
  H   H14       1.0  0.15462  0.44389  0.16992  1.0000
  C   C28       1.0  0.32578  0.48995  0.28626  1.0000
  H   H15       1.0  0.33929  0.50662  0.22662  1.0000
  C   C29       1.0  0.51426  0.79956  0.30717  1.0000
  C   C30       1.0  0.51592  0.77050  0.23832  1.0000
  C   C31       1.0  0.51780  0.72837  0.25617  1.0000
  H   H16       1.0  0.51369  0.77879  0.17360  1.0000
  O   O2        1.0  0.51388  0.70020  0.18569  1.0000
  H   H17       1.0  0.54701  0.70895  0.16991  1.0000
  C   C32       1.0  0.50093  0.83403  0.28632  1.0000
  H   H18       1.0  0.48426  0.83088  0.22668  1.0000
  C   C33       1.0  0.19127  0.71287  0.30712  1.0000
  C   C34       1.0  0.22034  0.74359  0.23830  1.0000
  C   C35       1.0  0.26249  0.78758  0.25617  1.0000
  H   H19       1.0  0.21206  0.73308  0.17357  1.0000
  O   O3        1.0  0.29067  0.81183  0.18571  1.0000
  H   H20       1.0  0.28194  0.83621  0.16991  1.0000
  C   C36       1.0  0.15679  0.66507  0.28625  1.0000
  H   H21       1.0  0.15994  0.65155  0.22662  1.0000
  C   C37       1.0  0.71106  0.51609  0.30716  1.0000
  C   C38       1.0  0.74178  0.51774  0.23834  1.0000
  C   C39       1.0  0.78576  0.51956  0.25623  1.0000
  H   H22       1.0  0.73128  0.51552  0.17362  1.0000
  O   O4        1.0  0.81001  0.51563  0.18578  1.0000
  H   H23       1.0  0.83440  0.54876  0.16999  1.0000
  C   C40       1.0  0.66326  0.50279  0.28627  1.0000
  H   H24       1.0  0.64975  0.48612  0.22662  1.0000
  C   C41       1.0  0.47474  0.19314  0.30712  1.0000
  C   C42       1.0  0.47308  0.22221  0.23830  1.0000
  C   C43       1.0  0.47124  0.26436  0.25618  1.0000
  H   H25       1.0  0.47529  0.21392  0.17358  1.0000
  O   O5        1.0  0.47517  0.29254  0.18573  1.0000
  H   H26       1.0  0.44204  0.28379  0.16993  1.0000
  C   C44       1.0  0.48804  0.15865  0.28622  1.0000
  H   H27       1.0  0.50470  0.16180  0.22656  1.0000
  C   C45       1.0  0.79771  0.27975  0.30714  1.0000
  C   C46       1.0  0.76865  0.24905  0.23829  1.0000
  C   C47       1.0  0.72649  0.20507  0.25611  1.0000
  H   H28       1.0  0.77695  0.25957  0.17358  1.0000
  O   O6        1.0  0.69832  0.18084  0.18563  1.0000
  H   H29       1.0  0.70706  0.15646  0.16981  1.0000
  C   C48       1.0  0.83220  0.32755  0.28631  1.0000
  H   H30       1.0  0.82907  0.34109  0.22668  1.0000
  C   C49       1.0  0.94140  0.50605  0.30815  1.0000
  C   C50       1.0  0.89098  0.48125  0.31573  1.0000
  H   H31       1.0  0.95786  0.54195  0.29384  1.0000
  C   C51       1.0  0.09799  0.51136  0.31561  1.0000
  C   C52       1.0  0.04757  0.48657  0.30801  1.0000
  H   H32       1.0  0.03111  0.45065  0.29381  1.0000
  N   N7        1.0  0.12154  0.48622  0.31275  1.0000
  N   N8        1.0  0.86744  0.50640  0.31285  1.0000
  C   C53       1.0  0.48477  0.43352  0.30796  1.0000
  C   C54       1.0  0.50955  0.40789  0.31559  1.0000
  H   H33       1.0  0.44886  0.41408  0.29368  1.0000
  C   C55       1.0  0.47949  0.58483  0.31551  1.0000
  C   C56       1.0  0.50427  0.55919  0.30782  1.0000
  H   H34       1.0  0.54018  0.57863  0.29362  1.0000
  N   N9        1.0  0.50465  0.63352  0.31268  1.0000
  N   N10       1.0  0.48440  0.35920  0.31276  1.0000
  C   C57       1.0  0.55730  0.04941  0.30773  1.0000
  C   C58       1.0  0.58294  0.09983  0.31544  1.0000
  H   H35       1.0  0.57676  0.03295  0.29360  1.0000
  C   C59       1.0  0.40602  0.89282  0.31562  1.0000
  C   C60       1.0  0.43165  0.94324  0.30796  1.0000
  H   H36       1.0  0.41221  0.95971  0.29366  1.0000
  N   N11       1.0  0.35733  0.86928  0.31276  1.0000
  N   N12       1.0  0.63163  0.12337  0.31260  1.0000
  C   C61       1.0  0.22127  0.47735  0.41356  1.0000
  C   C62       1.0  0.26251  0.47378  0.39593  1.0000
  C   C63       1.0  0.19243  0.47916  0.34451  1.0000
  O   O7        1.0  0.29012  0.47574  0.46617  1.0000
  H   H37       1.0  0.21379  0.48109  0.47807  1.0000
  H   H38       1.0  0.31071  0.50999  0.48122  1.0000
  C   C64       1.0  0.15959  0.49481  0.36399  1.0000
  H   H39       1.0  0.16365  0.51267  0.42256  1.0000
  C   C65       1.0  0.51355  0.74212  0.41356  1.0000
  C   C66       1.0  0.51712  0.78694  0.39597  1.0000
  C   C67       1.0  0.51174  0.71147  0.34450  1.0000
  O   O8        1.0  0.51515  0.81257  0.46621  1.0000
  H   H40       1.0  0.50982  0.73089  0.47807  1.0000
  H   H41       1.0  0.48091  0.79890  0.48126  1.0000
  C   C68       1.0  0.49609  0.66298  0.36396  1.0000
  H   H42       1.0  0.47823  0.64918  0.42253  1.0000
  C   C69       1.0  0.24871  0.76956  0.41356  1.0000
  C   C70       1.0  0.20389  0.72833  0.39593  1.0000
  C   C71       1.0  0.27937  0.79840  0.34451  1.0000
  O   O9        1.0  0.17823  0.70073  0.46616  1.0000
  H   H43       1.0  0.25993  0.77704  0.47807  1.0000
  H   H44       1.0  0.19188  0.68014  0.48122  1.0000
  C   C72       1.0  0.32787  0.83123  0.36400  1.0000
  H   H45       1.0  0.34166  0.82717  0.42257  1.0000
  C   C73       1.0  0.76772  0.51530  0.41361  1.0000
  C   C74       1.0  0.72650  0.51891  0.39597  1.0000
  C   C75       1.0  0.79656  0.51348  0.34457  1.0000
  O   O10       1.0  0.69889  0.51696  0.46619  1.0000
  H   H46       1.0  0.77518  0.51154  0.47812  1.0000
  H   H47       1.0  0.67829  0.48272  0.48123  1.0000
  C   C76       1.0  0.82937  0.49779  0.36406  1.0000
  H   H48       1.0  0.82530  0.47993  0.42263  1.0000
  C   C77       1.0  0.47552  0.25059  0.41358  1.0000
  C   C78       1.0  0.47191  0.20576  0.39593  1.0000
  C   C79       1.0  0.47735  0.28124  0.34453  1.0000
  O   O11       1.0  0.47387  0.18010  0.46615  1.0000
  H   H49       1.0  0.47927  0.26181  0.47808  1.0000
  H   H50       1.0  0.50812  0.19375  0.48118  1.0000
  C   C80       1.0  0.49300  0.32974  0.36400  1.0000
  H   H51       1.0  0.51087  0.34354  0.42256  1.0000
  C   C81       1.0  0.74023  0.22305  0.41353  1.0000
  C   C82       1.0  0.78507  0.26428  0.39594  1.0000
  C   C83       1.0  0.70959  0.19425  0.34444  1.0000
  O   O12       1.0  0.81072  0.29186  0.46619  1.0000
  H   H52       1.0  0.72900  0.21556  0.47803  1.0000
  H   H53       1.0  0.79707  0.31245  0.48126  1.0000
  C   C84       1.0  0.66108  0.16140  0.36388  1.0000
  H   H54       1.0  0.64728  0.16545  0.42245  1.0000
