data_image0
_chemical_formula_structural       C2HNO2C6H6C3HNO2C4HNO2C3HNO2C3HNO2C3HNO2C3HNO2NC12H6NC18H12NC18H12NC18H12C3HNO2C3HNO2C3HNO2C3HNO2C3HNO2
_chemical_formula_sum              "C108 H60 N16 O24"
_cell_length_a       38.9683
_cell_length_b       38.9683
_cell_length_c       14.7922
_cell_angle_alpha    90
_cell_angle_beta     90
_cell_angle_gamma    120

_space_group_name_H-M_alt    "P 1"
_space_group_IT_number       1

loop_
  _space_group_symop_operation_xyz
  'x, y, z'

loop_
  _atom_site_type_symbol
  _atom_site_label
  _atom_site_symmetry_multiplicity
  _atom_site_fract_x
  _atom_site_fract_y
  _atom_site_fract_z
  _atom_site_occupancy
  C   C1        1.0  0.23863  0.09453  0.30760  1.0000
  C   C2        1.0  0.19664  0.07474  0.31224  1.0000
  H   H1        1.0  0.18088  0.04717  0.28373  1.0000
  N   N1        1.0  0.25795  0.07622  0.26522  1.0000
  O   O1        1.0  0.24874  0.06949  0.18306  1.0000
  O   O2        1.0  0.24985  0.04418  0.30312  1.0000
  C   C3        1.0  0.04823  0.02596  0.35216  1.0000
  C   C4        1.0  0.06918  0.03797  0.43467  1.0000
  C   C5        1.0  0.11098  0.05873  0.43611  1.0000
  C   C6        1.0  0.13337  0.06978  0.35511  1.0000
  C   C7        1.0  0.11209  0.05739  0.27258  1.0000
  C   C8        1.0  0.07029  0.03554  0.27115  1.0000
  H   H2        1.0  0.12495  0.06510  0.49738  1.0000
  H   H3        1.0  0.05393  0.03076  0.49442  1.0000
  H   H4        1.0  0.05586  0.02711  0.21043  1.0000
  H   H5        1.0  0.12698  0.06440  0.21232  1.0000
  H   H6        1.0  0.01583  0.06606  0.25013  1.0000
  H   H7        1.0  0.01757  0.95340  0.45046  1.0000
  C   C9        1.0  0.17599  0.09138  0.35582  1.0000
  C   C10       1.0  0.19900  0.12983  0.39466  1.0000
  C   C11       1.0  0.24086  0.14943  0.39014  1.0000
  H   H8        1.0  0.25674  0.17724  0.41753  1.0000
  N   N2        1.0  0.18353  0.15219  0.43506  1.0000
  O   O3        1.0  0.15909  0.15549  0.38578  1.0000
  O   O4        1.0  0.16892  0.13956  0.51171  1.0000
  C   C12       1.0  0.26153  0.13256  0.34764  1.0000
  C   C13       1.0  0.87425  0.13067  0.35204  1.0000
  C   C14       1.0  0.88982  0.12278  0.27254  1.0000
  C   C15       1.0  0.91012  0.10107  0.27807  1.0000
  H   H9        1.0  0.91968  0.09512  0.21884  1.0000
  N   N3        1.0  0.88722  0.13838  0.18783  1.0000
  O   O5        1.0  0.86930  0.11161  0.12987  1.0000
  O   O6        1.0  0.92084  0.16284  0.15729  1.0000
  C   C16       1.0  0.87518  0.74656  0.33516  1.0000
  C   C17       1.0  0.88299  0.77016  0.25591  1.0000
  C   C18       1.0  0.90526  0.81217  0.26146  1.0000
  H   H10       1.0  0.91119  0.82781  0.20243  1.0000
  N   N4        1.0  0.86687  0.75206  0.17144  1.0000
  O   O7        1.0  0.89333  0.76060  0.11284  1.0000
  O   O8        1.0  0.84262  0.76169  0.14183  1.0000
  C   C19       1.0  0.62689  0.17772  0.35987  1.0000
  C   C20       1.0  0.61054  0.17854  0.27429  1.0000
  C   C21       1.0  0.57348  0.17705  0.26954  1.0000
  H   H11       1.0  0.56245  0.17700  0.20672  1.0000
  N   N5        1.0  0.63236  0.18396  0.19360  1.0000
  O   O9        1.0  0.61372  0.15631  0.13804  1.0000
  O   O10       1.0  0.64149  0.21632  0.15577  1.0000
  C   C22       1.0  0.82565  0.45123  0.34929  1.0000
  C   C23       1.0  0.82432  0.43307  0.26476  1.0000
  C   C24       1.0  0.82557  0.39733  0.26209  1.0000
  H   H12       1.0  0.82528  0.38562  0.19997  1.0000
  N   N6        1.0  0.81882  0.44881  0.18312  1.0000
  O   O11       1.0  0.84632  0.45715  0.12753  1.0000
  O   O12       1.0  0.78634  0.42535  0.14609  1.0000
  C   C25       1.0  0.55277  0.37927  0.34583  1.0000
  C   C26       1.0  0.57022  0.39510  0.26015  1.0000
  C   C27       1.0  0.60600  0.43200  0.25497  1.0000
  H   H13       1.0  0.61728  0.44263  0.19210  1.0000
  N   N7        1.0  0.55371  0.37294  0.17999  1.0000
  O   O13       1.0  0.54489  0.39148  0.12375  1.0000
  O   O14       1.0  0.57679  0.36343  0.14285  1.0000
  N   N8        1.0  0.00586  0.00443  0.35071  1.0000
  C   C28       1.0  0.98524  0.96191  0.34630  1.0000
  C   C29       1.0  0.98488  0.02593  0.35642  1.0000
  C   C30       1.0  0.99358  0.05751  0.29650  1.0000
  C   C31       1.0  0.97274  0.07841  0.30040  1.0000
  C   C32       1.0  0.94066  0.06758  0.36100  1.0000
  C   C33       1.0  0.93137  0.03497  0.41887  1.0000
  C   C34       1.0  0.95357  0.01533  0.41842  1.0000
  C   C35       1.0  0.99475  0.93943  0.40559  1.0000
  C   C36       1.0  0.97414  0.89768  0.40260  1.0000
  C   C37       1.0  0.94118  0.87602  0.34464  1.0000
  C   C38       1.0  0.93169  0.89890  0.28575  1.0000
  C   C39       1.0  0.95366  0.94075  0.28519  1.0000
  H   H14       1.0  0.98147  0.10193  0.25752  1.0000
  H   H15       1.0  0.98395  0.88325  0.44352  1.0000
  H   H16       1.0  0.90799  0.88526  0.24292  1.0000
  H   H17       1.0  0.94548  0.95588  0.24195  1.0000
  H   H18       1.0  0.94563  0.99194  0.46126  1.0000
  H   H19       1.0  0.90745  0.02430  0.46106  1.0000
  N   N9        1.0  0.43162  0.21821  0.34676  1.0000
  C   C40       1.0  0.45414  0.25995  0.36284  1.0000
  C   C41       1.0  0.38941  0.19706  0.34672  1.0000
  C   C42       1.0  0.45422  0.19906  0.33074  1.0000
  C   C43       1.0  0.48445  0.21436  0.26464  1.0000
  C   C44       1.0  0.51601  0.20660  0.26921  1.0000
  C   C45       1.0  0.51759  0.18145  0.33654  1.0000
  C   C46       1.0  0.48439  0.16234  0.39510  1.0000
  C   C47       1.0  0.45386  0.17180  0.39406  1.0000
  C   C48       1.0  0.45398  0.28679  0.29904  1.0000
  C   C49       1.0  0.48460  0.32673  0.29784  1.0000
  C   C50       1.0  0.51768  0.34081  0.35676  1.0000
  C   C51       1.0  0.51588  0.31417  0.42460  1.0000
  C   C52       1.0  0.48422  0.27491  0.42930  1.0000
  C   C53       1.0  0.36793  0.18231  0.26553  1.0000
  C   C54       1.0  0.32610  0.16139  0.26559  1.0000
  C   C55       1.0  0.30423  0.15403  0.34689  1.0000
  C   C56       1.0  0.32613  0.16919  0.42797  1.0000
  C   C57       1.0  0.36795  0.19034  0.42792  1.0000
  H   H20       1.0  0.48357  0.34488  0.24938  1.0000
  H   H21       1.0  0.43312  0.27670  0.24888  1.0000
  H   H22       1.0  0.48607  0.25592  0.47418  1.0000
  H   H23       1.0  0.53919  0.32204  0.46765  1.0000
  H   H24       1.0  0.48645  0.23537  0.22009  1.0000
  H   H25       1.0  0.53945  0.22222  0.22661  1.0000
  H   H26       1.0  0.38277  0.18715  0.20564  1.0000
  H   H27       1.0  0.31166  0.15196  0.20507  1.0000
  H   H28       1.0  0.31170  0.16446  0.48847  1.0000
  H   H29       1.0  0.38281  0.20061  0.48772  1.0000
  H   H30       1.0  0.43292  0.16092  0.44403  1.0000
  H   H31       1.0  0.48316  0.14292  0.44314  1.0000
  N   N10       1.0  0.78770  0.21579  0.35292  1.0000
  C   C58       1.0  0.74593  0.19693  0.37109  1.0000
  C   C59       1.0  0.80910  0.19469  0.35265  1.0000
  C   C60       1.0  0.80630  0.25748  0.33398  1.0000
  C   C61       1.0  0.79031  0.27103  0.26621  1.0000
  C   C62       1.0  0.79723  0.31015  0.26745  1.0000
  C   C63       1.0  0.82229  0.33815  0.33291  1.0000
  C   C64       1.0  0.84231  0.32559  0.39265  1.0000
  C   C65       1.0  0.83354  0.28586  0.39519  1.0000
  C   C66       1.0  0.71785  0.16958  0.30954  1.0000
  C   C67       1.0  0.67808  0.16067  0.31096  1.0000
  C   C68       1.0  0.66519  0.18067  0.36985  1.0000
  C   C69       1.0  0.69280  0.20577  0.43587  1.0000
  C   C70       1.0  0.73198  0.21285  0.43818  1.0000
  C   C71       1.0  0.80512  0.16886  0.28133  1.0000
  C   C72       1.0  0.82526  0.14719  0.28252  1.0000
  C   C73       1.0  0.85253  0.15207  0.35189  1.0000
  C   C74       1.0  0.85670  0.17861  0.42256  1.0000
  C   C75       1.0  0.83488  0.19861  0.42404  1.0000
  H   H32       1.0  0.65918  0.14114  0.26394  1.0000
  H   H33       1.0  0.72653  0.15808  0.25843  1.0000
  H   H34       1.0  0.75163  0.23387  0.48180  1.0000
  H   H35       1.0  0.68567  0.22173  0.47913  1.0000
  H   H36       1.0  0.76938  0.25116  0.22275  1.0000
  H   H37       1.0  0.78123  0.31698  0.22361  1.0000
  H   H38       1.0  0.78726  0.16539  0.22754  1.0000
  H   H39       1.0  0.81915  0.12721  0.23170  1.0000
  H   H40       1.0  0.87603  0.18395  0.47456  1.0000
  H   H41       1.0  0.83806  0.21620  0.47820  1.0000
  H   H42       1.0  0.84503  0.27739  0.44679  1.0000
  H   H43       1.0  0.86180  0.34472  0.43940  1.0000
  N   N11       1.0  0.78891  0.57493  0.33753  1.0000
  C   C76       1.0  0.80743  0.55179  0.35648  1.0000
  C   C77       1.0  0.81037  0.61741  0.33690  1.0000
  C   C78       1.0  0.74709  0.55211  0.31989  1.0000
  C   C79       1.0  0.73280  0.52191  0.25357  1.0000
  C   C80       1.0  0.69349  0.49012  0.25647  1.0000
  C   C81       1.0  0.66604  0.48830  0.32210  1.0000
  C   C82       1.0  0.67930  0.52155  0.38002  1.0000
  C   C83       1.0  0.71923  0.55207  0.38106  1.0000
  C   C84       1.0  0.83423  0.55024  0.29454  1.0000
  C   C85       1.0  0.84278  0.51914  0.29699  1.0000
  C   C86       1.0  0.82295  0.48681  0.35743  1.0000
  C   C87       1.0  0.79838  0.49015  0.42358  1.0000
  C   C88       1.0  0.79170  0.52251  0.42487  1.0000
  C   C89       1.0  0.83591  0.63899  0.26491  1.0000
  C   C90       1.0  0.85774  0.68080  0.26550  1.0000
  C   C91       1.0  0.85340  0.70345  0.33510  1.0000
  C   C92       1.0  0.82721  0.68133  0.40653  1.0000
  C   C93       1.0  0.80705  0.63953  0.40853  1.0000
  H   H44       1.0  0.86188  0.51916  0.24961  1.0000
  H   H45       1.0  0.84550  0.56999  0.24252  1.0000
  H   H46       1.0  0.77099  0.52172  0.46861  1.0000
  H   H47       1.0  0.78251  0.46748  0.46790  1.0000
  H   H48       1.0  0.75226  0.52008  0.21017  1.0000
  H   H49       1.0  0.68610  0.46677  0.21386  1.0000
  H   H50       1.0  0.83905  0.62436  0.21115  1.0000
  H   H51       1.0  0.87746  0.69450  0.21414  1.0000
  H   H52       1.0  0.82227  0.69550  0.45878  1.0000
  H   H53       1.0  0.78982  0.62533  0.46330  1.0000
  H   H54       1.0  0.72817  0.57255  0.43159  1.0000
  H   H55       1.0  0.66059  0.52267  0.42681  1.0000
  C   C94       1.0  0.91814  0.08811  0.36089  1.0000
  C   C95       1.0  0.90400  0.09738  0.44072  1.0000
  C   C96       1.0  0.88181  0.11719  0.43476  1.0000
  H   H56       1.0  0.87126  0.12210  0.49378  1.0000
  N   N12       1.0  0.91390  0.08891  0.52687  1.0000
  O   O15       1.0  0.93509  0.11999  0.57130  1.0000
  O   O16       1.0  0.88361  0.06668  0.57272  1.0000
  C   C97       1.0  0.91911  0.83298  0.34422  1.0000
  C   C98       1.0  0.90960  0.80946  0.42398  1.0000
  C   C99       1.0  0.88917  0.76748  0.41786  1.0000
  H   H57       1.0  0.88431  0.75195  0.47675  1.0000
  N   N13       1.0  0.91846  0.82767  0.51041  1.0000
  O   O17       1.0  0.88755  0.81828  0.55507  1.0000
  O   O18       1.0  0.94028  0.81894  0.55594  1.0000
  C   C100      1.0  0.55255  0.17779  0.34715  1.0000
  C   C101      1.0  0.56972  0.17858  0.43273  1.0000
  C   C102      1.0  0.60536  0.17719  0.43752  1.0000
  H   H58       1.0  0.61644  0.17721  0.50027  1.0000
  N   N14       1.0  0.55307  0.18367  0.51334  1.0000
  O   O19       1.0  0.54390  0.15575  0.56821  1.0000
  O   O20       1.0  0.57620  0.21585  0.55198  1.0000
  C   C103      1.0  0.82534  0.37659  0.34096  1.0000
  C   C104      1.0  0.82492  0.39390  0.42554  1.0000
  C   C105      1.0  0.82643  0.43101  0.42815  1.0000
  H   H59       1.0  0.82675  0.44276  0.49025  1.0000
  N   N15       1.0  0.82009  0.37305  0.50748  1.0000
  O   O21       1.0  0.84818  0.39236  0.56160  1.0000
  O   O22       1.0  0.78804  0.36444  0.54620  1.0000
  C   C106      1.0  0.62747  0.45328  0.33243  1.0000
  C   C107      1.0  0.61081  0.43664  0.41819  1.0000
  C   C108      1.0  0.57359  0.40126  0.42321  1.0000
  H   H60       1.0  0.56237  0.39060  0.48610  1.0000
  N   N16       1.0  0.63243  0.45337  0.49893  1.0000
  O   O23       1.0  0.61379  0.46293  0.55321  1.0000
  O   O24       1.0  0.64116  0.43017  0.53836  1.0000
