data_image0
_chemical_formula_structural       C4HC4H2NO2C4HC4H2NO2C4HC4H2NO2C4H4C4H4C4H4NC18H12NC18H12NC18H12NC18H12C4H4C4H4C4H4C4HC4H2NO2C4HC4H2NO2C4HC4H2NO2
_chemical_formula_sum              "C144 H90 N10 O12"
_cell_length_a       50.5083
_cell_length_b       50.5084
_cell_length_c       14.7792
_cell_angle_alpha    90
_cell_angle_beta     90
_cell_angle_gamma    120

_space_group_name_H-M_alt    "P 1"
_space_group_IT_number       1

loop_
  _space_group_symop_operation_xyz
  'x, y, z'

loop_
  _atom_site_type_symbol
  _atom_site_label
  _atom_site_symmetry_multiplicity
  _atom_site_fract_x
  _atom_site_fract_y
  _atom_site_fract_z
  _atom_site_occupancy
  C   C1        1.0  0.30118  0.15218  0.34677  1.0000
  C   C2        1.0  0.23514  0.11937  0.34293  1.0000
  C   C3        1.0  0.25227  0.13741  0.26774  1.0000
  C   C4        1.0  0.28472  0.15342  0.27085  1.0000
  H   H1        1.0  0.29642  0.16682  0.21675  1.0000
  C   C5        1.0  0.20228  0.10271  0.34421  1.0000
  C   C6        1.0  0.13632  0.06959  0.34675  1.0000
  C   C7        1.0  0.15293  0.06629  0.27461  1.0000
  C   C8        1.0  0.18517  0.08232  0.27368  1.0000
  H   H2        1.0  0.14164  0.05158  0.22252  1.0000
  H   H3        1.0  0.19609  0.07862  0.22110  1.0000
  N   N1        1.0  0.23685  0.14011  0.19128  1.0000
  O   O1        1.0  0.24330  0.13061  0.12069  1.0000
  O   O2        1.0  0.24323  0.16727  0.17870  1.0000
  C   C9        1.0  0.85768  0.15276  0.34682  1.0000
  C   C10       1.0  0.89048  0.11953  0.34296  1.0000
  C   C11       1.0  0.87243  0.11860  0.26778  1.0000
  C   C12       1.0  0.85643  0.13505  0.27090  1.0000
  H   H4        1.0  0.84300  0.13333  0.21685  1.0000
  C   C13       1.0  0.90714  0.10333  0.34424  1.0000
  C   C14       1.0  0.94025  0.07048  0.34675  1.0000
  C   C15       1.0  0.94353  0.09037  0.27458  1.0000
  C   C16       1.0  0.92751  0.10659  0.27367  1.0000
  H   H5        1.0  0.95825  0.09381  0.22251  1.0000
  H   H6        1.0  0.93121  0.12121  0.22110  1.0000
  N   N2        1.0  0.86971  0.10047  0.19136  1.0000
  O   O3        1.0  0.87920  0.11641  0.12074  1.0000
  O   O4        1.0  0.84254  0.07969  0.17883  1.0000
  C   C17       1.0  0.85709  0.70865  0.34681  1.0000
  C   C18       1.0  0.89033  0.77470  0.34292  1.0000
  C   C19       1.0  0.89126  0.75756  0.26777  1.0000
  C   C20       1.0  0.87482  0.72511  0.27092  1.0000
  H   H7        1.0  0.87654  0.71341  0.21686  1.0000
  C   C21       1.0  0.90653  0.80755  0.34418  1.0000
  C   C22       1.0  0.93938  0.87352  0.34670  1.0000
  C   C23       1.0  0.91950  0.85691  0.27452  1.0000
  C   C24       1.0  0.90328  0.82467  0.27360  1.0000
  H   H8        1.0  0.91605  0.86819  0.22244  1.0000
  H   H9        1.0  0.88866  0.81374  0.22103  1.0000
  N   N3        1.0  0.90939  0.77297  0.19134  1.0000
  O   O5        1.0  0.89346  0.76651  0.12071  1.0000
  O   O6        1.0  0.93018  0.76660  0.17883  1.0000
  C   C25       1.0  0.54362  0.19395  0.27592  1.0000
  C   C26       1.0  0.57107  0.19323  0.27345  1.0000
  C   C27       1.0  0.63740  0.21250  0.30931  1.0000
  C   C28       1.0  0.66565  0.21337  0.30444  1.0000
  H   H10       1.0  0.63625  0.23108  0.28698  1.0000
  H   H11       1.0  0.68410  0.23263  0.27922  1.0000
  H   H12       1.0  0.53711  0.20037  0.21831  1.0000
  H   H13       1.0  0.58276  0.19816  0.21354  1.0000
  C   C29       1.0  0.81600  0.35345  0.27590  1.0000
  C   C30       1.0  0.81671  0.38162  0.27343  1.0000
  C   C31       1.0  0.79743  0.42867  0.30919  1.0000
  C   C32       1.0  0.79657  0.45606  0.30431  1.0000
  H   H14       1.0  0.77885  0.40894  0.28691  1.0000
  H   H15       1.0  0.77730  0.45524  0.27912  1.0000
  H   H16       1.0  0.80954  0.34050  0.21832  1.0000
  H   H17       1.0  0.81178  0.38837  0.21350  1.0000
  C   C33       1.0  0.65647  0.46627  0.27598  1.0000
  C   C34       1.0  0.62828  0.43882  0.27346  1.0000
  C   C35       1.0  0.58123  0.37248  0.30915  1.0000
  C   C36       1.0  0.55384  0.34423  0.30427  1.0000
  H   H18       1.0  0.60096  0.37364  0.28682  1.0000
  H   H19       1.0  0.55466  0.32579  0.27904  1.0000
  H   H20       1.0  0.66940  0.47279  0.21837  1.0000
  H   H21       1.0  0.62152  0.42715  0.21350  1.0000
  N   N4        1.0  0.00531  0.00453  0.34926  1.0000
  C   C37       1.0  0.03782  0.02071  0.34859  1.0000
  C   C38       1.0  0.98898  0.97202  0.34858  1.0000
  C   C39       1.0  0.98913  0.02086  0.34859  1.0000
  C   C40       1.0  0.98727  0.03564  0.42733  1.0000
  C   C41       1.0  0.97109  0.05171  0.42688  1.0000
  C   C42       1.0  0.95654  0.05390  0.34745  1.0000
  C   C43       1.0  0.95872  0.03907  0.26864  1.0000
  C   C44       1.0  0.97458  0.02269  0.26929  1.0000
  C   C45       1.0  0.05447  0.02258  0.42733  1.0000
  C   C46       1.0  0.08671  0.03876  0.42689  1.0000
  C   C47       1.0  0.10345  0.05330  0.34744  1.0000
  C   C48       1.0  0.08645  0.05112  0.26864  1.0000
  C   C49       1.0  0.05420  0.03526  0.26928  1.0000
  C   C50       1.0  0.98716  0.95564  0.26926  1.0000
  C   C51       1.0  0.97077  0.92339  0.26860  1.0000
  C   C52       1.0  0.95594  0.90638  0.34741  1.0000
  C   C53       1.0  0.95812  0.92312  0.42684  1.0000
  C   C54       1.0  0.97420  0.95537  0.42731  1.0000
  H   H22       1.0  0.09789  0.03924  0.48511  1.0000
  H   H23       1.0  0.04311  0.01222  0.48563  1.0000
  H   H24       1.0  0.04266  0.03423  0.21137  1.0000
  H   H25       1.0  0.09743  0.06161  0.20999  1.0000
  H   H26       1.0  0.99763  0.03463  0.48563  1.0000
  H   H27       1.0  0.97060  0.06240  0.48510  1.0000
  H   H28       1.0  0.99768  0.96719  0.21136  1.0000
  H   H29       1.0  0.97030  0.91241  0.20997  1.0000
  H   H30       1.0  0.94745  0.91194  0.48507  1.0000
  H   H31       1.0  0.97520  0.96673  0.48561  1.0000
  H   H32       1.0  0.97560  0.01216  0.21137  1.0000
  H   H33       1.0  0.94822  0.03956  0.21000  1.0000
  N   N5        1.0  0.43226  0.21782  0.35182  1.0000
  C   C55       1.0  0.44936  0.25010  0.34154  1.0000
  C   C56       1.0  0.39982  0.20144  0.35049  1.0000
  C   C57       1.0  0.44999  0.20318  0.35971  1.0000
  C   C58       1.0  0.46808  0.20834  0.43764  1.0000
  C   C59       1.0  0.49229  0.20211  0.43743  1.0000
  C   C60       1.0  0.49905  0.18998  0.35991  1.0000
  C   C61       1.0  0.47932  0.18291  0.28426  1.0000
  C   C62       1.0  0.45544  0.18969  0.28370  1.0000
  C   C63       1.0  0.45693  0.26913  0.41842  1.0000
  C   C64       1.0  0.48112  0.29961  0.41548  1.0000
  C   C65       1.0  0.49865  0.31182  0.33579  1.0000
  C   C66       1.0  0.48990  0.29312  0.25759  1.0000
  C   C67       1.0  0.46558  0.26274  0.26038  1.0000
  C   C68       1.0  0.38298  0.19970  0.42862  1.0000
  C   C69       1.0  0.35074  0.18354  0.42748  1.0000
  C   C70       1.0  0.33411  0.16852  0.34827  1.0000
  C   C71       1.0  0.35139  0.17046  0.27027  1.0000
  C   C72       1.0  0.38361  0.18667  0.27121  1.0000
  H   H34       1.0  0.48738  0.31196  0.47427  1.0000
  H   H35       1.0  0.44670  0.26011  0.47915  1.0000
  H   H36       1.0  0.46141  0.24910  0.20494  1.0000
  H   H37       1.0  0.50214  0.30099  0.19891  1.0000
  H   H38       1.0  0.46545  0.21918  0.49237  1.0000
  H   H39       1.0  0.50637  0.20886  0.49262  1.0000
  H   H40       1.0  0.39416  0.21022  0.48694  1.0000
  H   H41       1.0  0.33950  0.18340  0.48518  1.0000
  H   H42       1.0  0.34064  0.15966  0.21170  1.0000
  H   H43       1.0  0.39520  0.18775  0.21343  1.0000
  H   H44       1.0  0.44362  0.18687  0.22507  1.0000
  H   H45       1.0  0.48296  0.17398  0.22666  1.0000
  N   N6        1.0  0.79203  0.21820  0.35193  1.0000
  C   C73       1.0  0.75974  0.20300  0.34162  1.0000
  C   C74       1.0  0.80841  0.20214  0.35058  1.0000
  C   C75       1.0  0.80666  0.25057  0.35979  1.0000
  C   C76       1.0  0.80149  0.26349  0.43772  1.0000
  C   C77       1.0  0.80769  0.29391  0.43741  1.0000
  C   C78       1.0  0.81988  0.31281  0.35994  1.0000
  C   C79       1.0  0.82699  0.30016  0.28435  1.0000
  C   C80       1.0  0.82018  0.26949  0.28377  1.0000
  C   C81       1.0  0.74074  0.19154  0.41852  1.0000
  C   C82       1.0  0.71026  0.18524  0.41555  1.0000
  C   C83       1.0  0.69805  0.19057  0.33585  1.0000
  C   C84       1.0  0.71675  0.20052  0.25765  1.0000
  C   C85       1.0  0.74714  0.20659  0.26043  1.0000
  C   C86       1.0  0.81019  0.18707  0.42873  1.0000
  C   C87       1.0  0.82635  0.17099  0.42758  1.0000
  C   C88       1.0  0.84134  0.16936  0.34834  1.0000
  C   C89       1.0  0.83936  0.18466  0.27030  1.0000
  C   C90       1.0  0.82315  0.20067  0.27127  1.0000
  H   H46       1.0  0.69790  0.17914  0.47433  1.0000
  H   H47       1.0  0.74976  0.19032  0.47924  1.0000
  H   H48       1.0  0.76079  0.21607  0.20500  1.0000
  H   H49       1.0  0.70888  0.20490  0.19898  1.0000
  H   H50       1.0  0.79065  0.25001  0.49246  1.0000
  H   H51       1.0  0.80101  0.30127  0.49267  1.0000
  H   H52       1.0  0.79969  0.18774  0.48708  1.0000
  H   H53       1.0  0.82651  0.15991  0.48529  1.0000
  H   H54       1.0  0.85014  0.18469  0.21170  1.0000
  H   H55       1.0  0.82204  0.21116  0.21346  1.0000
  H   H56       1.0  0.82302  0.26049  0.22518  1.0000
  H   H57       1.0  0.83594  0.31273  0.22676  1.0000
  N   N7        1.0  0.79170  0.57757  0.35208  1.0000
  C   C91       1.0  0.80691  0.56051  0.34146  1.0000
  C   C92       1.0  0.80774  0.61002  0.35067  1.0000
  C   C93       1.0  0.75934  0.55980  0.36000  1.0000
  C   C94       1.0  0.74642  0.54170  0.43789  1.0000
  C   C95       1.0  0.71600  0.51746  0.43754  1.0000
  C   C96       1.0  0.69710  0.51077  0.36007  1.0000
  C   C97       1.0  0.70974  0.53057  0.28454  1.0000
  C   C98       1.0  0.74041  0.55442  0.28399  1.0000
  C   C99       1.0  0.81841  0.55299  0.41835  1.0000
  C   C100      1.0  0.82474  0.52882  0.41537  1.0000
  C   C101      1.0  0.81937  0.51126  0.33572  1.0000
  C   C102      1.0  0.80940  0.51999  0.25753  1.0000
  C   C103      1.0  0.80335  0.54432  0.26027  1.0000
  C   C104      1.0  0.82278  0.62687  0.42883  1.0000
  C   C105      1.0  0.83885  0.65911  0.42764  1.0000
  C   C106      1.0  0.84050  0.67572  0.34835  1.0000
  C   C107      1.0  0.82523  0.65843  0.27031  1.0000
  C   C108      1.0  0.80922  0.62621  0.27130  1.0000
  H   H58       1.0  0.83077  0.52253  0.47422  1.0000
  H   H59       1.0  0.81956  0.56319  0.47908  1.0000
  H   H60       1.0  0.79380  0.54845  0.20494  1.0000
  H   H61       1.0  0.80500  0.50773  0.19888  1.0000
  H   H62       1.0  0.75990  0.54431  0.49261  1.0000
  H   H63       1.0  0.70864  0.50340  0.49275  1.0000
  H   H64       1.0  0.82210  0.61570  0.48721  1.0000
  H   H65       1.0  0.84992  0.67036  0.48536  1.0000
  H   H66       1.0  0.82521  0.66917  0.21167  1.0000
  H   H67       1.0  0.79877  0.61460  0.21349  1.0000
  H   H68       1.0  0.74941  0.56629  0.22541  1.0000
  H   H69       1.0  0.69718  0.52695  0.22694  1.0000
  C   C109      1.0  0.28374  0.13420  0.42098  1.0000
  C   C110      1.0  0.25154  0.11825  0.41919  1.0000
  C   C111      1.0  0.18573  0.10581  0.41681  1.0000
  C   C112      1.0  0.15349  0.08958  0.41810  1.0000
  H   H70       1.0  0.19709  0.12048  0.46896  1.0000
  H   H71       1.0  0.14261  0.09316  0.47106  1.0000
  H   H72       1.0  0.29435  0.13194  0.47694  1.0000
  H   H73       1.0  0.24009  0.10521  0.47415  1.0000
  C   C113      1.0  0.87567  0.15331  0.42100  1.0000
  C   C114      1.0  0.89161  0.13705  0.41920  1.0000
  C   C115      1.0  0.90404  0.08368  0.41684  1.0000
  C   C116      1.0  0.92026  0.06766  0.41812  1.0000
  H   H74       1.0  0.88938  0.08038  0.46900  1.0000
  H   H75       1.0  0.91670  0.05321  0.47109  1.0000
  H   H76       1.0  0.87794  0.16620  0.47695  1.0000
  H   H77       1.0  0.90467  0.13865  0.47414  1.0000
  C   C117      1.0  0.85652  0.72611  0.42094  1.0000
  C   C118      1.0  0.87279  0.75831  0.41915  1.0000
  C   C119      1.0  0.92618  0.82410  0.41678  1.0000
  C   C120      1.0  0.94221  0.85635  0.41806  1.0000
  H   H78       1.0  0.92946  0.81275  0.46900  1.0000
  H   H79       1.0  0.95662  0.86723  0.47109  1.0000
  H   H80       1.0  0.84364  0.71550  0.47690  1.0000
  H   H81       1.0  0.87119  0.76977  0.47407  1.0000
  C   C121      1.0  0.52612  0.18734  0.35623  1.0000
  C   C122      1.0  0.58267  0.18633  0.35160  1.0000
  C   C123      1.0  0.56563  0.17985  0.43324  1.0000
  C   C124      1.0  0.53764  0.18004  0.43393  1.0000
  H   H82       1.0  0.52574  0.17503  0.49340  1.0000
  C   C125      1.0  0.61130  0.18698  0.34655  1.0000
  C   C126      1.0  0.66893  0.18880  0.33701  1.0000
  C   C127      1.0  0.64287  0.16328  0.37428  1.0000
  C   C128      1.0  0.61450  0.16226  0.37805  1.0000
  H   H83       1.0  0.64421  0.14495  0.39792  1.0000
  H   H84       1.0  0.59606  0.14308  0.40364  1.0000
  N   N8        1.0  0.57752  0.17498  0.51443  1.0000
  O   O7        1.0  0.55959  0.14934  0.54856  1.0000
  O   O8        1.0  0.58280  0.19536  0.57202  1.0000
  C   C129      1.0  0.82258  0.34255  0.35624  1.0000
  C   C130      1.0  0.82360  0.40011  0.35157  1.0000
  C   C131      1.0  0.83005  0.38954  0.43323  1.0000
  C   C132      1.0  0.82986  0.36136  0.43395  1.0000
  H   H85       1.0  0.83484  0.35447  0.49344  1.0000
  C   C133      1.0  0.82295  0.42809  0.34650  1.0000
  C   C134      1.0  0.82113  0.48390  0.33690  1.0000
  C   C135      1.0  0.84665  0.48336  0.37422  1.0000
  C   C136      1.0  0.84767  0.45601  0.37800  1.0000
  H   H86       1.0  0.86497  0.50303  0.39786  1.0000
  H   H87       1.0  0.86683  0.45675  0.40363  1.0000
  N   N9        1.0  0.83491  0.40630  0.51441  1.0000
  O   O9        1.0  0.86054  0.41400  0.54860  1.0000
  O   O10       1.0  0.81452  0.39121  0.57197  1.0000
  C   C137      1.0  0.66736  0.48373  0.35634  1.0000
  C   C138      1.0  0.60980  0.42720  0.35160  1.0000
  C   C139      1.0  0.62037  0.44421  0.43330  1.0000
  C   C140      1.0  0.64855  0.47218  0.43404  1.0000
  H   H88       1.0  0.65545  0.48405  0.49356  1.0000
  C   C141      1.0  0.58181  0.39857  0.34651  1.0000
  C   C142      1.0  0.52600  0.34094  0.33693  1.0000
  C   C143      1.0  0.52655  0.36700  0.37433  1.0000
  C   C144      1.0  0.55390  0.39537  0.37808  1.0000
  H   H89       1.0  0.50688  0.36565  0.39799  1.0000
  H   H90       1.0  0.55316  0.41379  0.40374  1.0000
  N   N10       1.0  0.60362  0.43228  0.51447  1.0000
  O   O11       1.0  0.59592  0.45020  0.54875  1.0000
  O   O12       1.0  0.61871  0.42696  0.57199  1.0000
