data_image0
_chemical_formula_structural       C2H3CHNC7H3CHC2NO2NC4H3C5H3C2HONONHC3HNO2NC3HNO2NH2C2H2C3HNOC3HNOC6H5C2NO2N2C12H5CHCH
_chemical_formula_sum              "C60 H36 N14 O12"
_cell_length_a       32.249
_cell_length_b       32.248
_cell_length_c       14.4785
_cell_angle_alpha    90
_cell_angle_beta     90
_cell_angle_gamma    120.002

_space_group_name_H-M_alt    "P 1"
_space_group_IT_number       1

loop_
  _space_group_symop_operation_xyz
  'x, y, z'

loop_
  _atom_site_type_symbol
  _atom_site_label
  _atom_site_symmetry_multiplicity
  _atom_site_fract_x
  _atom_site_fract_y
  _atom_site_fract_z
  _atom_site_occupancy
  C   C1        1.0  0.27913  0.65328  0.30600  1.0000
  C   C2        1.0  0.22894  0.62475  0.31449  1.0000
  H   H1        1.0  0.29347  0.67169  0.24598  1.0000
  H   H2        1.0  0.20800  0.62287  0.25969  1.0000
  H   H3        1.0  0.37333  0.63078  0.24598  1.0000
  C   C3        1.0  0.05351  0.53338  0.28101  1.0000
  H   H4        1.0  0.07222  0.54343  0.22017  1.0000
  N   N1        1.0  0.36034  0.68467  0.36952  1.0000
  C   C4        1.0  0.30968  0.65615  0.37864  1.0000
  C   C5        1.0  0.38249  0.73533  0.37864  1.0000
  C   C6        1.0  0.38887  0.66253  0.37864  1.0000
  C   C7        1.0  0.37766  0.75627  0.46059  1.0000
  C   C8        1.0  0.20778  0.59806  0.39593  1.0000
  C   C9        1.0  0.23871  0.60166  0.46887  1.0000
  C   C10       1.0  0.28875  0.63039  0.46059  1.0000
  H   H5        1.0  0.35811  0.73502  0.51458  1.0000
  H   H6        1.0  0.30999  0.63206  0.51456  1.0000
  H   H7        1.0  0.22507  0.58306  0.52910  1.0000
  C   C11       1.0  0.15856  0.56728  0.40526  1.0000
  H   H8        1.0  0.14754  0.53978  0.44861  1.0000
  C   C12       1.0  0.07884  0.54619  0.36536  1.0000
  C   C13       1.0  0.05241  0.53270  0.44909  1.0000
  N   N2        1.0  0.07686  0.54738  0.53459  1.0000
  O   O1        1.0  0.06833  0.51207  0.58448  1.0000
  O   O2        1.0  0.06547  0.57382  0.57848  1.0000
  N   N3        1.0  0.12669  0.57248  0.36134  1.0000
  C   C14       1.0  0.39174  0.63485  0.30599  1.0000
  C   C15       1.0  0.41017  0.76588  0.30600  1.0000
  C   C16       1.0  0.43186  0.81608  0.31452  1.0000
  C   C17       1.0  0.42026  0.61317  0.31449  1.0000
  H   H9        1.0  0.41425  0.75155  0.24600  1.0000
  H   H10       1.0  0.45089  0.83702  0.25970  1.0000
  H   H11       1.0  0.42215  0.59414  0.25968  1.0000
  C   C18       1.0  0.42629  0.83723  0.39593  1.0000
  C   C19       1.0  0.39896  0.80630  0.46888  1.0000
  C   C20       1.0  0.44695  0.61871  0.39592  1.0000
  C   C21       1.0  0.44335  0.64605  0.46887  1.0000
  C   C22       1.0  0.41463  0.66735  0.46059  1.0000
  H   H12       1.0  0.39401  0.81994  0.52912  1.0000
  H   H13       1.0  0.46195  0.65100  0.52911  1.0000
  H   H14       1.0  0.41293  0.68690  0.51458  1.0000
  C   C23       1.0  0.47773  0.60027  0.40526  1.0000
  C   C24       1.0  0.44475  0.88646  0.40528  1.0000
  H   H15       1.0  0.42827  0.89747  0.44866  1.0000
  O   O3        1.0  0.47120  0.50065  0.57849  1.0000
  N   N4        1.0  0.47253  0.56320  0.36134  1.0000
  O   O4        1.0  0.47979  0.97669  0.58449  1.0000
  N   N5        1.0  0.48181  0.91833  0.36134  1.0000
  H   H16       1.0  0.59975  0.19720  0.26180  1.0000
  C   C25       1.0  0.55236  0.49252  0.36140  1.0000
  C   C26       1.0  0.53844  0.50517  0.27798  1.0000
  C   C27       1.0  0.51163  0.52912  0.28101  1.0000
  H   H17       1.0  0.50158  0.53778  0.22017  1.0000
  N   N6        1.0  0.55127  0.49305  0.19280  1.0000
  O   O5        1.0  0.51491  0.46550  0.14609  1.0000
  O   O6        1.0  0.57716  0.52973  0.14540  1.0000
  N   N7        1.0  0.57735  0.46941  0.35702  1.0000
  C   C28       1.0  0.55250  0.06885  0.36140  1.0000
  C   C29       1.0  0.53983  0.04227  0.27798  1.0000
  C   C30       1.0  0.51588  0.99151  0.28101  1.0000
  H   H18       1.0  0.50722  0.97280  0.22017  1.0000
  N   N8        1.0  0.55194  0.06722  0.19280  1.0000
  O   O7        1.0  0.57949  0.05842  0.14606  1.0000
  O   O8        1.0  0.51525  0.05644  0.14542  1.0000
  N   N9        1.0  0.57561  0.11695  0.35702  1.0000
  H   H19       1.0  0.50523  0.61676  0.44862  1.0000
  H   H20       1.0  0.60060  0.39082  0.53406  1.0000
  C   C31       1.0  0.58524  0.44452  0.41687  1.0000
  C   C32       1.0  0.60054  0.14973  0.41685  1.0000
  H   H21       1.0  0.57022  0.43991  0.47876  1.0000
  H   H22       1.0  0.60520  0.13931  0.47870  1.0000
  C   C33       1.0  0.49882  0.54164  0.36536  1.0000
  C   C34       1.0  0.51232  0.52872  0.44909  1.0000
  C   C35       1.0  0.53930  0.50504  0.44588  1.0000
  H   H23       1.0  0.54920  0.49676  0.50708  1.0000
  N   N10       1.0  0.49764  0.53848  0.53459  1.0000
  O   O9        1.0  0.53294  0.56526  0.58447  1.0000
  C   C36       1.0  0.50338  0.96618  0.36537  1.0000
  C   C37       1.0  0.51631  0.99260  0.44909  1.0000
  C   C38       1.0  0.53999  0.04327  0.44588  1.0000
  H   H24       1.0  0.54828  0.06146  0.50708  1.0000
  N   N11       1.0  0.50656  0.96816  0.53459  1.0000
  O   O10       1.0  0.54440  0.97956  0.57847  1.0000
  C   C39       1.0  0.64315  0.26905  0.30187  1.0000
  C   C40       1.0  0.61951  0.21897  0.31512  1.0000
  C   C41       1.0  0.77598  0.38312  0.30187  1.0000
  C   C42       1.0  0.82606  0.40955  0.31512  1.0000
  C   C43       1.0  0.66192  0.40189  0.30188  1.0000
  C   C44       1.0  0.63550  0.42554  0.31514  1.0000
  H   H25       1.0  0.63992  0.28240  0.23987  1.0000
  H   H26       1.0  0.76263  0.36653  0.23988  1.0000
  H   H27       1.0  0.84783  0.41157  0.26180  1.0000
  H   H28       1.0  0.67851  0.40512  0.23989  1.0000
  H   H29       1.0  0.63349  0.44531  0.26182  1.0000
  C   C45       1.0  0.97618  0.49265  0.36139  1.0000
  C   C46       1.0  0.00275  0.50657  0.27798  1.0000
  N   N12       1.0  0.97780  0.49374  0.19279  1.0000
  O   O11       1.0  0.98661  0.53009  0.14608  1.0000
  O   O12       1.0  0.98859  0.46784  0.14540  1.0000
  N   N13       1.0  0.92807  0.46767  0.35701  1.0000
  N   N14       1.0  0.69368  0.35135  0.35956  1.0000
  C   C47       1.0  0.74422  0.37900  0.37308  1.0000
  C   C48       1.0  0.67080  0.30081  0.37308  1.0000
  C   C49       1.0  0.66603  0.37423  0.37308  1.0000
  C   C50       1.0  0.62290  0.19900  0.40014  1.0000
  C   C51       1.0  0.65068  0.23128  0.47117  1.0000
  C   C52       1.0  0.67407  0.28113  0.45804  1.0000
  C   C53       1.0  0.84602  0.43291  0.40014  1.0000
  C   C54       1.0  0.81375  0.42842  0.47117  1.0000
  C   C55       1.0  0.76390  0.40195  0.45804  1.0000
  C   C56       1.0  0.61214  0.42215  0.40014  1.0000
  C   C57       1.0  0.61662  0.39436  0.47117  1.0000
  C   C58       1.0  0.64308  0.37096  0.45803  1.0000
  H   H30       1.0  0.65421  0.21879  0.53406  1.0000
  H   H31       1.0  0.69345  0.30311  0.51132  1.0000
  H   H32       1.0  0.74192  0.39936  0.51132  1.0000
  H   H33       1.0  0.82625  0.44444  0.53405  1.0000
  H   H34       1.0  0.64567  0.35157  0.51131  1.0000
  C   C59       1.0  0.89530  0.45984  0.41683  1.0000
  H   H35       1.0  0.90572  0.47490  0.47870  1.0000
  C   C60       1.0  0.00176  0.50572  0.44588  1.0000
  H   H36       1.0  0.98357  0.49581  0.50707  1.0000
