data_image0
_chemical_formula_structural       C3HCH3C3HCH3C3HCH3C3HCH3C3HCH3C3HCH3C3HCH3C3HCH3C3HCH3C3HCH3C3HCH3C3HCH3C3HCH3C3HCH3C3HCH3C3HCH3C3HCH3C3HCH3C6H3C6H3C6H3C6H3C6H3C6H3C6H3C6H3C6H3C6H3C6H3C6H3C3HCH3C3HCH3C3HCH3C3HCH3C3HCH3C3HCH3C3HCH3C3HCH3C3HCH3C3HCH3C3HCH3C3HCH3C3HCH3C3HCH3C3HCH3C3HCH3C3HCH3C3HCH3
_chemical_formula_sum              "C216 H180"
_cell_length_a       39.8177
_cell_length_b       39.8177
_cell_length_c       14.8219
_cell_angle_alpha    90
_cell_angle_beta     90
_cell_angle_gamma    120

_space_group_name_H-M_alt    "P 1"
_space_group_IT_number       1

loop_
  _space_group_symop_operation_xyz
  'x, y, z'

loop_
  _atom_site_type_symbol
  _atom_site_label
  _atom_site_symmetry_multiplicity
  _atom_site_fract_x
  _atom_site_fract_y
  _atom_site_fract_z
  _atom_site_occupancy
  C   C1        1.0  0.27175  0.45934  0.34197  1.0000
  C   C2        1.0  0.24698  0.44791  0.26512  1.0000
  C   C3        1.0  0.21133  0.44779  0.27055  1.0000
  H   H1        1.0  0.19443  0.44123  0.21381  1.0000
  C   C4        1.0  0.25727  0.43804  0.17629  1.0000
  H   H2        1.0  0.28538  0.43961  0.17598  1.0000
  H   H3        1.0  0.25803  0.45802  0.12478  1.0000
  H   H4        1.0  0.23541  0.40857  0.15738  1.0000
  C   C5        1.0  0.57423  0.83395  0.34193  1.0000
  C   C6        1.0  0.58567  0.82062  0.26509  1.0000
  C   C7        1.0  0.58579  0.78509  0.27054  1.0000
  H   H5        1.0  0.59237  0.77476  0.21381  1.0000
  C   C8        1.0  0.59555  0.84078  0.17627  1.0000
  H   H6        1.0  0.59398  0.86732  0.17596  1.0000
  H   H7        1.0  0.57558  0.82156  0.12476  1.0000
  H   H8        1.0  0.62503  0.84840  0.15740  1.0000
  C   C9        1.0  0.19959  0.76182  0.34198  1.0000
  C   C10       1.0  0.21294  0.78658  0.26512  1.0000
  C   C11       1.0  0.24848  0.82223  0.27053  1.0000
  H   H9        1.0  0.25882  0.83912  0.21379  1.0000
  C   C12       1.0  0.19278  0.77629  0.17629  1.0000
  H   H10       1.0  0.16624  0.74819  0.17600  1.0000
  H   H11       1.0  0.21199  0.77551  0.12479  1.0000
  H   H12       1.0  0.18518  0.79816  0.15738  1.0000
  C   C13       1.0  0.75864  0.57739  0.34197  1.0000
  C   C14       1.0  0.78341  0.58884  0.26514  1.0000
  C   C15       1.0  0.81907  0.58896  0.27057  1.0000
  H   H13       1.0  0.83597  0.59554  0.21383  1.0000
  C   C16       1.0  0.77312  0.59871  0.17631  1.0000
  H   H14       1.0  0.74501  0.59714  0.17600  1.0000
  H   H15       1.0  0.77237  0.57874  0.12480  1.0000
  H   H16       1.0  0.79498  0.62819  0.15743  1.0000
  C   C17       1.0  0.45616  0.20278  0.34199  1.0000
  C   C18       1.0  0.44474  0.21613  0.26513  1.0000
  C   C19       1.0  0.44462  0.25166  0.27054  1.0000
  H   H17       1.0  0.43806  0.26199  0.21380  1.0000
  C   C20       1.0  0.43487  0.19597  0.17630  1.0000
  H   H18       1.0  0.43644  0.16943  0.17600  1.0000
  H   H19       1.0  0.45486  0.21518  0.12480  1.0000
  H   H20       1.0  0.40540  0.18835  0.15738  1.0000
  C   C21       1.0  0.83077  0.27494  0.34195  1.0000
  C   C22       1.0  0.81744  0.25017  0.26512  1.0000
  C   C23       1.0  0.78191  0.21451  0.27055  1.0000
  H   H21       1.0  0.77158  0.19761  0.21382  1.0000
  C   C24       1.0  0.83760  0.26044  0.17629  1.0000
  H   H22       1.0  0.86414  0.28855  0.17598  1.0000
  H   H23       1.0  0.81839  0.26121  0.12477  1.0000
  H   H24       1.0  0.84522  0.23858  0.15742  1.0000
  C   C25       1.0  0.14853  0.54914  0.34106  1.0000
  C   C26       1.0  0.15902  0.57343  0.26363  1.0000
  C   C27       1.0  0.15906  0.60894  0.26968  1.0000
  H   H25       1.0  0.16483  0.62564  0.21282  1.0000
  C   C28       1.0  0.16804  0.56288  0.17409  1.0000
  H   H26       1.0  0.16681  0.53493  0.17372  1.0000
  H   H27       1.0  0.19720  0.58486  0.15340  1.0000
  H   H28       1.0  0.14736  0.56165  0.12392  1.0000
  C   C29       1.0  0.48444  0.62094  0.34110  1.0000
  C   C30       1.0  0.46015  0.60713  0.26366  1.0000
  C   C31       1.0  0.42463  0.57166  0.26975  1.0000
  H   H29       1.0  0.40793  0.56073  0.21289  1.0000
  C   C32       1.0  0.47070  0.62667  0.17410  1.0000
  H   H30       1.0  0.49865  0.65339  0.17372  1.0000
  H   H31       1.0  0.44872  0.63386  0.15339  1.0000
  H   H32       1.0  0.47193  0.60722  0.12396  1.0000
  C   C33       1.0  0.41263  0.88504  0.34107  1.0000
  C   C34       1.0  0.42644  0.87455  0.26364  1.0000
  C   C35       1.0  0.46191  0.87451  0.26973  1.0000
  H   H33       1.0  0.47284  0.86873  0.21287  1.0000
  C   C36       1.0  0.40689  0.86554  0.17409  1.0000
  H   H34       1.0  0.38016  0.86677  0.17370  1.0000
  H   H35       1.0  0.39970  0.83637  0.15340  1.0000
  H   H36       1.0  0.42633  0.88622  0.12393  1.0000
  C   C37       1.0  0.88188  0.48763  0.34106  1.0000
  C   C38       1.0  0.87139  0.46333  0.26363  1.0000
  C   C39       1.0  0.87135  0.42782  0.26972  1.0000
  H   H37       1.0  0.86557  0.41111  0.21286  1.0000
  C   C40       1.0  0.86238  0.47387  0.17409  1.0000
  H   H38       1.0  0.86360  0.50182  0.17371  1.0000
  H   H39       1.0  0.83321  0.45189  0.15340  1.0000
  H   H40       1.0  0.88305  0.47511  0.12393  1.0000
  C   C41       1.0  0.54595  0.41581  0.34104  1.0000
  C   C42       1.0  0.57025  0.42962  0.26362  1.0000
  C   C43       1.0  0.60576  0.46509  0.26972  1.0000
  H   H41       1.0  0.62247  0.47602  0.21286  1.0000
  C   C44       1.0  0.55971  0.41007  0.17407  1.0000
  H   H42       1.0  0.53176  0.38334  0.17368  1.0000
  H   H43       1.0  0.58169  0.40288  0.15339  1.0000
  H   H44       1.0  0.55848  0.42951  0.12390  1.0000
  C   C45       1.0  0.61775  0.15169  0.34106  1.0000
  C   C46       1.0  0.60395  0.16219  0.26364  1.0000
  C   C47       1.0  0.56847  0.16223  0.26973  1.0000
  H   H45       1.0  0.55755  0.16801  0.21287  1.0000
  C   C48       1.0  0.62350  0.17121  0.17409  1.0000
  H   H46       1.0  0.65022  0.16998  0.17370  1.0000
  H   H47       1.0  0.63069  0.20037  0.15342  1.0000
  H   H48       1.0  0.60406  0.15054  0.12393  1.0000
  C   C49       1.0  0.05671  0.41026  0.34275  1.0000
  C   C50       1.0  0.03458  0.39369  0.26300  1.0000
  C   C51       1.0  0.99351  0.37318  0.26845  1.0000
  H   H49       1.0  0.97777  0.36373  0.20987  1.0000
  C   C52       1.0  0.05218  0.39899  0.17176  1.0000
  H   H50       1.0  0.08378  0.41436  0.17286  1.0000
  H   H51       1.0  0.04305  0.41534  0.12908  1.0000
  H   H52       1.0  0.04245  0.37068  0.14097  1.0000
  C   C53       1.0  0.62332  0.66800  0.34274  1.0000
  C   C54       1.0  0.63989  0.66245  0.26300  1.0000
  C   C55       1.0  0.66040  0.64189  0.26845  1.0000
  H   H53       1.0  0.66986  0.63560  0.20987  1.0000
  C   C56       1.0  0.63459  0.67474  0.17175  1.0000
  H   H54       1.0  0.61921  0.69096  0.17285  1.0000
  H   H55       1.0  0.61824  0.64927  0.12907  1.0000
  H   H56       1.0  0.66290  0.69332  0.14095  1.0000
  C   C57       1.0  0.36555  0.97684  0.34275  1.0000
  C   C58       1.0  0.37109  0.99896  0.26302  1.0000
  C   C59       1.0  0.39165  0.04004  0.26846  1.0000
  H   H57       1.0  0.39793  0.05577  0.20988  1.0000
  C   C60       1.0  0.35879  0.98137  0.17177  1.0000
  H   H58       1.0  0.34257  0.94977  0.17287  1.0000
  H   H59       1.0  0.38425  0.99050  0.12907  1.0000
  H   H60       1.0  0.34020  0.99109  0.14100  1.0000
  C   C61       1.0  0.97369  0.62652  0.34271  1.0000
  C   C62       1.0  0.99581  0.64307  0.26296  1.0000
  C   C63       1.0  0.03688  0.66358  0.26842  1.0000
  H   H61       1.0  0.05262  0.67303  0.20984  1.0000
  C   C64       1.0  0.97821  0.63778  0.17172  1.0000
  H   H62       1.0  0.94661  0.62241  0.17283  1.0000
  H   H63       1.0  0.98733  0.62143  0.12903  1.0000
  H   H64       1.0  0.98794  0.66609  0.14093  1.0000
  C   C65       1.0  0.40706  0.36874  0.34265  1.0000
  C   C66       1.0  0.39049  0.37429  0.26292  1.0000
  C   C67       1.0  0.36999  0.39486  0.26840  1.0000
  H   H65       1.0  0.36052  0.40114  0.20983  1.0000
  C   C68       1.0  0.39576  0.36198  0.17167  1.0000
  H   H66       1.0  0.41113  0.34575  0.17277  1.0000
  H   H67       1.0  0.41211  0.38745  0.12897  1.0000
  H   H68       1.0  0.36745  0.34340  0.14091  1.0000
  C   C69       1.0  0.66486  0.05990  0.34266  1.0000
  C   C70       1.0  0.65927  0.03774  0.26296  1.0000
  C   C71       1.0  0.63871  0.99667  0.26842  1.0000
  H   H69       1.0  0.63242  0.98093  0.20985  1.0000
  C   C72       1.0  0.67157  0.05533  0.17170  1.0000
  H   H70       1.0  0.68780  0.08692  0.17278  1.0000
  H   H71       1.0  0.64609  0.04620  0.12903  1.0000
  H   H72       1.0  0.69014  0.04559  0.14091  1.0000
  C   C73       1.0  0.14241  0.51075  0.33889  1.0000
  C   C74       1.0  0.10414  0.47910  0.33804  1.0000
  C   C75       1.0  0.09641  0.44039  0.34000  1.0000
  C   C76       1.0  0.12812  0.43359  0.34262  1.0000
  C   C77       1.0  0.16693  0.46491  0.34403  1.0000
  C   C78       1.0  0.17355  0.50334  0.34187  1.0000
  H   H73       1.0  0.12288  0.40568  0.34540  1.0000
  H   H74       1.0  0.20138  0.52628  0.34365  1.0000
  H   H75       1.0  0.08143  0.48441  0.33678  1.0000
  C   C79       1.0  0.52283  0.65321  0.33890  1.0000
  C   C80       1.0  0.55448  0.64659  0.33805  1.0000
  C   C81       1.0  0.59319  0.67758  0.33999  1.0000
  C   C82       1.0  0.59999  0.71609  0.34255  1.0000
  C   C83       1.0  0.56867  0.72357  0.34403  1.0000
  C   C84       1.0  0.53024  0.69176  0.34187  1.0000
  H   H76       1.0  0.62789  0.73875  0.34540  1.0000
  H   H77       1.0  0.50730  0.69664  0.34367  1.0000
  H   H78       1.0  0.54917  0.61857  0.33681  1.0000
  C   C85       1.0  0.38036  0.89116  0.33888  1.0000
  C   C86       1.0  0.38698  0.92942  0.33802  1.0000
  C   C87       1.0  0.35599  0.93714  0.34000  1.0000
  C   C88       1.0  0.31748  0.90543  0.34256  1.0000
  C   C89       1.0  0.31000  0.86662  0.34405  1.0000
  C   C90       1.0  0.34181  0.86001  0.34187  1.0000
  H   H79       1.0  0.29481  0.91067  0.34542  1.0000
  H   H80       1.0  0.33693  0.83218  0.34366  1.0000
  H   H81       1.0  0.41499  0.95213  0.33681  1.0000
  C   C91       1.0  0.88800  0.52602  0.33887  1.0000
  C   C92       1.0  0.92627  0.55766  0.33800  1.0000
  C   C93       1.0  0.93399  0.59637  0.33999  1.0000
  C   C94       1.0  0.90228  0.60317  0.34259  1.0000
  C   C95       1.0  0.86347  0.57185  0.34405  1.0000
  C   C96       1.0  0.85685  0.53342  0.34189  1.0000
  H   H82       1.0  0.90752  0.63108  0.34540  1.0000
  H   H83       1.0  0.82903  0.51048  0.34367  1.0000
  H   H84       1.0  0.94898  0.55236  0.33676  1.0000
  C   C97       1.0  0.50756  0.38354  0.33884  1.0000
  C   C98       1.0  0.47591  0.39016  0.33795  1.0000
  C   C99       1.0  0.43720  0.35917  0.33989  1.0000
  C   C100      1.0  0.43040  0.32066  0.34255  1.0000
  C   C101      1.0  0.46173  0.31318  0.34402  1.0000
  C   C102      1.0  0.50015  0.34499  0.34187  1.0000
  H   H85       1.0  0.40250  0.29800  0.34536  1.0000
  H   H86       1.0  0.52310  0.34011  0.34366  1.0000
  H   H87       1.0  0.48121  0.41817  0.33670  1.0000
  C   C103      1.0  0.65003  0.14558  0.33886  1.0000
  C   C104      1.0  0.64341  0.10731  0.33798  1.0000
  C   C105      1.0  0.67441  0.09960  0.33991  1.0000
  C   C106      1.0  0.71291  0.13131  0.34258  1.0000
  C   C107      1.0  0.72039  0.17012  0.34403  1.0000
  C   C108      1.0  0.68858  0.17673  0.34189  1.0000
  H   H88       1.0  0.73558  0.12608  0.34535  1.0000
  H   H89       1.0  0.69345  0.20455  0.34367  1.0000
  H   H90       1.0  0.61540  0.08460  0.33671  1.0000
  C   C109      1.0  0.50790  0.14561  0.34540  1.0000
  C   C110      1.0  0.47626  0.10732  0.34605  1.0000
  C   C111      1.0  0.43755  0.09959  0.34526  1.0000
  C   C112      1.0  0.43073  0.13128  0.34221  1.0000
  C   C113      1.0  0.46204  0.17012  0.34051  1.0000
  C   C114      1.0  0.50047  0.17673  0.34189  1.0000
  H   H91       1.0  0.40281  0.12606  0.34311  1.0000
  H   H92       1.0  0.52341  0.20457  0.34204  1.0000
  H   H93       1.0  0.48158  0.08464  0.34862  1.0000
  C   C115      1.0  0.64972  0.52567  0.34538  1.0000
  C   C116      1.0  0.64308  0.55731  0.34604  1.0000
  C   C117      1.0  0.67407  0.59602  0.34523  1.0000
  C   C118      1.0  0.71257  0.60283  0.34220  1.0000
  C   C119      1.0  0.72009  0.57152  0.34049  1.0000
  C   C120      1.0  0.68827  0.53309  0.34189  1.0000
  H   H94       1.0  0.73527  0.63075  0.34311  1.0000
  H   H95       1.0  0.69318  0.51016  0.34201  1.0000
  H   H96       1.0  0.61508  0.55200  0.34861  1.0000
  C   C121      1.0  0.88797  0.38386  0.34537  1.0000
  C   C122      1.0  0.92625  0.39050  0.34606  1.0000
  C   C123      1.0  0.93398  0.35951  0.34523  1.0000
  C   C124      1.0  0.90228  0.32101  0.34218  1.0000
  C   C125      1.0  0.86345  0.31349  0.34045  1.0000
  C   C126      1.0  0.85684  0.34531  0.34183  1.0000
  H   H97       1.0  0.90750  0.29831  0.34311  1.0000
  H   H98       1.0  0.82900  0.34040  0.34199  1.0000
  H   H99       1.0  0.94894  0.41850  0.34862  1.0000
  C   C127      1.0  0.52249  0.89113  0.34538  1.0000
  C   C128      1.0  0.55412  0.92941  0.34606  1.0000
  C   C129      1.0  0.59284  0.93715  0.34522  1.0000
  C   C130      1.0  0.59966  0.90546  0.34212  1.0000
  C   C131      1.0  0.56835  0.86662  0.34044  1.0000
  C   C132      1.0  0.52992  0.86001  0.34183  1.0000
  H   H100      1.0  0.62757  0.91068  0.34310  1.0000
  H   H101      1.0  0.50699  0.83217  0.34201  1.0000
  H   H102      1.0  0.54881  0.95210  0.34864  1.0000
  C   C133      1.0  0.38067  0.51109  0.34537  1.0000
  C   C134      1.0  0.38732  0.47946  0.34602  1.0000
  C   C135      1.0  0.35634  0.44074  0.34521  1.0000
  C   C136      1.0  0.31783  0.43392  0.34212  1.0000
  C   C137      1.0  0.31030  0.46522  0.34049  1.0000
  C   C138      1.0  0.34212  0.50365  0.34185  1.0000
  H   H103      1.0  0.29513  0.40600  0.34311  1.0000
  H   H104      1.0  0.33720  0.52659  0.34206  1.0000
  H   H105      1.0  0.41531  0.48477  0.34865  1.0000
  C   C139      1.0  0.14242  0.65290  0.34533  1.0000
  C   C140      1.0  0.10414  0.64625  0.34598  1.0000
  C   C141      1.0  0.09641  0.67724  0.34520  1.0000
  C   C142      1.0  0.12810  0.71574  0.34217  1.0000
  C   C143      1.0  0.16693  0.72327  0.34050  1.0000
  C   C144      1.0  0.17354  0.69145  0.34185  1.0000
  H   H106      1.0  0.12287  0.73844  0.34314  1.0000
  H   H107      1.0  0.20139  0.69636  0.34200  1.0000
  H   H108      1.0  0.08145  0.61825  0.34857  1.0000
  C   C145      1.0  0.19953  0.45905  0.34953  1.0000
  C   C146      1.0  0.22396  0.46973  0.42690  1.0000
  C   C147      1.0  0.25943  0.46966  0.42158  1.0000
  H   H109      1.0  0.27730  0.47832  0.47693  1.0000
  C   C148      1.0  0.21463  0.48160  0.51442  1.0000
  H   H110      1.0  0.18596  0.47876  0.51569  1.0000
  H   H111      1.0  0.23603  0.51181  0.52854  1.0000
  H   H112      1.0  0.21551  0.46351  0.56870  1.0000
  C   C149      1.0  0.57453  0.76204  0.34952  1.0000
  C   C150      1.0  0.56383  0.77577  0.42687  1.0000
  C   C151      1.0  0.56391  0.81132  0.42155  1.0000
  H   H113      1.0  0.55524  0.82052  0.47689  1.0000
  C   C152      1.0  0.55196  0.75458  0.51439  1.0000
  H   H114      1.0  0.55480  0.72874  0.51568  1.0000
  H   H115      1.0  0.52174  0.74576  0.52850  1.0000
  H   H116      1.0  0.57005  0.77355  0.56869  1.0000
  C   C153      1.0  0.27154  0.83400  0.34950  1.0000
  C   C154      1.0  0.25780  0.80960  0.42689  1.0000
  C   C155      1.0  0.22224  0.77413  0.42157  1.0000
  H   H117      1.0  0.21303  0.75627  0.47694  1.0000
  C   C156      1.0  0.27899  0.81892  0.51442  1.0000
  H   H118      1.0  0.30483  0.84759  0.51568  1.0000
  H   H119      1.0  0.28779  0.79751  0.52855  1.0000
  H   H120      1.0  0.26002  0.81806  0.56869  1.0000
  C   C157      1.0  0.83086  0.57770  0.34954  1.0000
  C   C158      1.0  0.80644  0.56701  0.42689  1.0000
  C   C159      1.0  0.77096  0.56708  0.42158  1.0000
  H   H121      1.0  0.75309  0.55841  0.47693  1.0000
  C   C160      1.0  0.81576  0.55514  0.51442  1.0000
  H   H122      1.0  0.84444  0.55799  0.51570  1.0000
  H   H123      1.0  0.79436  0.52493  0.52854  1.0000
  H   H124      1.0  0.81487  0.57323  0.56871  1.0000
  C   C161      1.0  0.45587  0.27472  0.34951  1.0000
  C   C162      1.0  0.46656  0.26098  0.42687  1.0000
  C   C163      1.0  0.46649  0.22543  0.42157  1.0000
  H   H125      1.0  0.47515  0.21624  0.47693  1.0000
  C   C164      1.0  0.47843  0.28218  0.51439  1.0000
  H   H126      1.0  0.47559  0.30801  0.51567  1.0000
  H   H127      1.0  0.50865  0.29100  0.52850  1.0000
  H   H128      1.0  0.46035  0.26321  0.56869  1.0000
  C   C165      1.0  0.75885  0.20273  0.34953  1.0000
  C   C166      1.0  0.77259  0.22715  0.42688  1.0000
  C   C167      1.0  0.80814  0.26263  0.42155  1.0000
  H   H129      1.0  0.81734  0.28050  0.47690  1.0000
  C   C168      1.0  0.75140  0.21784  0.51440  1.0000
  H   H130      1.0  0.72556  0.18916  0.51568  1.0000
  H   H131      1.0  0.74258  0.23924  0.52851  1.0000
  H   H132      1.0  0.77037  0.21872  0.56869  1.0000
  C   C169      1.0  0.14860  0.62069  0.34985  1.0000
  C   C170      1.0  0.13919  0.59690  0.42801  1.0000
  C   C171      1.0  0.13928  0.56152  0.42200  1.0000
  H   H133      1.0  0.13135  0.54380  0.47758  1.0000
  C   C172      1.0  0.12853  0.60665  0.51660  1.0000
  H   H134      1.0  0.13148  0.63537  0.51808  1.0000
  H   H135      1.0  0.14730  0.60596  0.56941  1.0000
  H   H136      1.0  0.09850  0.58538  0.53279  1.0000
  C   C173      1.0  0.41286  0.54948  0.34997  1.0000
  C   C174      1.0  0.43668  0.56385  0.42806  1.0000
  C   C175      1.0  0.47207  0.59932  0.42204  1.0000
  H   H137      1.0  0.48979  0.60910  0.47760  1.0000
  C   C176      1.0  0.42694  0.54344  0.51666  1.0000
  H   H138      1.0  0.39822  0.51768  0.51815  1.0000
  H   H139      1.0  0.42765  0.56291  0.56948  1.0000
  H   H140      1.0  0.44821  0.53467  0.53281  1.0000
  C   C177      1.0  0.48410  0.88495  0.34992  1.0000
  C   C178      1.0  0.46973  0.89438  0.42804  1.0000
  C   C179      1.0  0.43426  0.89430  0.42201  1.0000
  H   H141      1.0  0.42447  0.90223  0.47758  1.0000
  C   C180      1.0  0.49013  0.90505  0.51664  1.0000
  H   H142      1.0  0.51589  0.90208  0.51813  1.0000
  H   H143      1.0  0.47066  0.88628  0.56944  1.0000
  H   H144      1.0  0.49890  0.93508  0.53281  1.0000
  C   C181      1.0  0.88179  0.41607  0.34991  1.0000
  C   C182      1.0  0.89122  0.43987  0.42803  1.0000
  C   C183      1.0  0.89113  0.47526  0.42200  1.0000
  H   H145      1.0  0.89907  0.49298  0.47757  1.0000
  C   C184      1.0  0.90188  0.43013  0.51663  1.0000
  H   H146      1.0  0.89892  0.40141  0.51813  1.0000
  H   H147      1.0  0.88311  0.43083  0.56944  1.0000
  H   H148      1.0  0.93192  0.45140  0.53280  1.0000
  C   C185      1.0  0.61751  0.48728  0.34991  1.0000
  C   C186      1.0  0.59370  0.47290  0.42802  1.0000
  C   C187      1.0  0.55832  0.43744  0.42199  1.0000
  H   H149      1.0  0.54059  0.42765  0.47755  1.0000
  C   C188      1.0  0.60344  0.49331  0.51663  1.0000
  H   H150      1.0  0.63216  0.51907  0.51813  1.0000
  H   H151      1.0  0.60273  0.47384  0.56943  1.0000
  H   H152      1.0  0.58217  0.50207  0.53279  1.0000
  C   C189      1.0  0.54629  0.15178  0.34992  1.0000
  C   C190      1.0  0.56066  0.14235  0.42805  1.0000
  C   C191      1.0  0.59613  0.14243  0.42201  1.0000
  H   H153      1.0  0.60591  0.13449  0.47757  1.0000
  C   C192      1.0  0.54025  0.13168  0.51665  1.0000
  H   H154      1.0  0.51449  0.13464  0.51815  1.0000
  H   H155      1.0  0.55972  0.15044  0.56946  1.0000
  H   H156      1.0  0.53149  0.10164  0.53281  1.0000
  C   C193      1.0  0.97360  0.36896  0.35049  1.0000
  C   C194      1.0  0.99576  0.38450  0.43065  1.0000
  C   C195      1.0  0.03676  0.40460  0.42536  1.0000
  H   H157      1.0  0.05246  0.41787  0.48233  1.0000
  C   C196      1.0  0.97819  0.38299  0.52037  1.0000
  H   H158      1.0  0.94665  0.36534  0.52043  1.0000
  H   H159      1.0  0.98608  0.41228  0.54169  1.0000
  H   H160      1.0  0.98906  0.37055  0.57019  1.0000
  C   C197      1.0  0.66462  0.62620  0.35048  1.0000
  C   C198      1.0  0.64908  0.63282  0.43065  1.0000
  C   C199      1.0  0.62899  0.65372  0.42535  1.0000
  H   H161      1.0  0.61571  0.65615  0.48232  1.0000
  C   C200      1.0  0.65059  0.61676  0.52037  1.0000
  H   H162      1.0  0.66824  0.60287  0.52043  1.0000
  H   H163      1.0  0.62130  0.59536  0.54169  1.0000
  H   H164      1.0  0.66303  0.64007  0.57019  1.0000
  C   C201      1.0  0.40738  0.05997  0.35046  1.0000
  C   C202      1.0  0.40075  0.03779  0.43063  1.0000
  C   C203      1.0  0.37985  0.99680  0.42534  1.0000
  H   H165      1.0  0.37742  0.98109  0.48232  1.0000
  C   C204      1.0  0.41681  0.05536  0.52035  1.0000
  H   H166      1.0  0.43070  0.08690  0.52043  1.0000
  H   H167      1.0  0.43821  0.04747  0.54167  1.0000
  H   H168      1.0  0.39349  0.04448  0.57017  1.0000
  C   C205      1.0  0.05678  0.66778  0.35046  1.0000
  C   C206      1.0  0.03462  0.65223  0.43063  1.0000
  C   C207      1.0  0.99362  0.63214  0.42533  1.0000
  H   H169      1.0  0.97791  0.61886  0.48230  1.0000
  C   C208      1.0  0.05219  0.65373  0.52034  1.0000
  H   H170      1.0  0.08373  0.67138  0.52041  1.0000
  H   H171      1.0  0.04429  0.62444  0.54164  1.0000
  H   H172      1.0  0.04132  0.66617  0.57018  1.0000
  C   C209      1.0  0.36579  0.41057  0.35045  1.0000
  C   C210      1.0  0.38136  0.40396  0.43060  1.0000
  C   C211      1.0  0.40145  0.38305  0.42528  1.0000
  H   H173      1.0  0.41473  0.38061  0.48223  1.0000
  C   C212      1.0  0.37987  0.42003  0.52032  1.0000
  H   H174      1.0  0.36223  0.43392  0.52040  1.0000
  H   H175      1.0  0.40917  0.44143  0.54159  1.0000
  H   H176      1.0  0.36744  0.39672  0.57016  1.0000
  C   C213      1.0  0.62301  0.97678  0.35046  1.0000
  C   C214      1.0  0.62963  0.99895  0.43060  1.0000
  C   C215      1.0  0.65053  0.03995  0.42525  1.0000
  H   H177      1.0  0.65296  0.05566  0.48221  1.0000
  C   C216      1.0  0.61356  0.98140  0.52033  1.0000
  H   H178      1.0  0.59967  0.94986  0.52042  1.0000
  H   H179      1.0  0.59216  0.98929  0.54160  1.0000
  H   H180      1.0  0.63687  0.99228  0.57016  1.0000
