data_image0
_chemical_formula_structural       C5H2C5NO2C2NO2HCHCHC7HCH2C6HNH2NO2C7H2NH2NO2C5H2NH2C7H2NH2NO2C7H2NH2NO2C7H2NH2NO2C8HC7HCH4C8HC7HCH4C2HCHNH2C2HC3HNH2NO2C4HNH2NO2C2HC3HNH2NO2C2HC3HNH2NO2C2HC3HNH2NO2
_chemical_formula_sum              "C120 H66 N24 O24"
_cell_length_a       32.0332
_cell_length_b       32.0332
_cell_length_c       14.8318
_cell_angle_alpha    89.9984
_cell_angle_beta     90.0016
_cell_angle_gamma    120

_space_group_name_H-M_alt    "P 1"
_space_group_IT_number       1

loop_
  _space_group_symop_operation_xyz
  'x, y, z'

loop_
  _atom_site_type_symbol
  _atom_site_label
  _atom_site_symmetry_multiplicity
  _atom_site_fract_x
  _atom_site_fract_y
  _atom_site_fract_z
  _atom_site_occupancy
  C   C1        1.0  0.03508  0.51770  0.34438  1.0000
  C   C2        1.0  0.06135  0.56937  0.34691  1.0000
  C   C3        1.0  0.06079  0.49178  0.34206  1.0000
  C   C4        1.0  0.03485  0.59377  0.34877  1.0000
  C   C5        1.0  0.03394  0.44089  0.34325  1.0000
  H   H1        1.0  0.05206  0.63054  0.35225  1.0000
  H   H2        1.0  0.05089  0.42103  0.34175  1.0000
  C   C6        1.0  0.11279  0.59499  0.34875  1.0000
  C   C7        1.0  0.13642  0.56789  0.34204  1.0000
  C   C8        1.0  0.11214  0.51710  0.33784  1.0000
  C   C9        1.0  0.14428  0.64652  0.35574  1.0000
  C   C10       1.0  0.15099  0.67835  0.28355  1.0000
  N   N1        1.0  0.11934  0.66112  0.20872  1.0000
  O   O1        1.0  0.09943  0.68587  0.19559  1.0000
  O   O2        1.0  0.14109  0.66147  0.13796  1.0000
  C   C11       1.0  0.14294  0.49633  0.33148  1.0000
  C   C12       1.0  0.15189  0.47470  0.40685  1.0000
  N   N2        1.0  0.12242  0.46380  0.48437  1.0000
  O   O3        1.0  0.14611  0.48853  0.55103  1.0000
  O   O4        1.0  0.10308  0.41994  0.50476  1.0000
  H   H3        1.0  0.17346  0.58617  0.34086  1.0000
  C   C13       1.0  0.17510  0.50995  0.25750  1.0000
  H   H4        1.0  0.17001  0.52759  0.20468  1.0000
  C   C14       1.0  0.17859  0.66410  0.42654  1.0000
  H   H5        1.0  0.17505  0.64073  0.47713  1.0000
  C   C15       1.0  0.98323  0.49197  0.34434  1.0000
  C   C16       1.0  0.95751  0.51789  0.34197  1.0000
  C   C17       1.0  0.90617  0.49257  0.33762  1.0000
  C   C18       1.0  0.88190  0.44177  0.34184  1.0000
  C   C19       1.0  0.90553  0.41468  0.34860  1.0000
  C   C20       1.0  0.95697  0.44031  0.34684  1.0000
  C   C21       1.0  0.98437  0.56878  0.34318  1.0000
  H   H6        1.0  0.84485  0.42348  0.34057  1.0000
  C   C22       1.0  0.98346  0.41590  0.34875  1.0000
  H   H7        1.0  0.96742  0.58864  0.34172  1.0000
  H   H8        1.0  0.96625  0.37913  0.35218  1.0000
  C   C23       1.0  0.36731  0.49801  0.35580  1.0000
  C   C24       1.0  0.33548  0.47289  0.28362  1.0000
  C   C25       1.0  0.28796  0.46562  0.28432  1.0000
  C   C26       1.0  0.27251  0.48727  0.34972  1.0000
  C   C27       1.0  0.22743  0.48644  0.33674  1.0000
  C   C28       1.0  0.21824  0.50778  0.26032  1.0000
  H   H9        1.0  0.26594  0.44820  0.23065  1.0000
  N   N3        1.0  0.25050  0.52971  0.19209  1.0000
  H   H10       1.0  0.28260  0.53390  0.19359  1.0000
  H   H11       1.0  0.24373  0.54523  0.14222  1.0000
  N   N4        1.0  0.35271  0.45846  0.20879  1.0000
  O   O5        1.0  0.32795  0.41379  0.19567  1.0000
  O   O6        1.0  0.35236  0.47986  0.13802  1.0000
  C   C29       1.0  0.51584  0.86958  0.35566  1.0000
  C   C30       1.0  0.54092  0.86282  0.28348  1.0000
  C   C31       1.0  0.54806  0.82249  0.28415  1.0000
  C   C32       1.0  0.52646  0.78543  0.34966  1.0000
  C   C33       1.0  0.52730  0.74119  0.33676  1.0000
  C   C34       1.0  0.50597  0.71064  0.26035  1.0000
  C   C35       1.0  0.50382  0.66534  0.25756  1.0000
  H   H12       1.0  0.48628  0.64267  0.20462  1.0000
  H   H13       1.0  0.56558  0.81793  0.23060  1.0000
  N   N5        1.0  0.48414  0.72102  0.19198  1.0000
  H   H14       1.0  0.47967  0.74876  0.19381  1.0000
  H   H15       1.0  0.46840  0.69858  0.14241  1.0000
  N   N6        1.0  0.55541  0.89451  0.20870  1.0000
  O   O7        1.0  0.60007  0.91434  0.19561  1.0000
  O   O8        1.0  0.53400  0.87281  0.13790  1.0000
  C   C36       1.0  0.19123  0.72587  0.28426  1.0000
  C   C37       1.0  0.22834  0.74133  0.34968  1.0000
  C   C38       1.0  0.27258  0.78641  0.33670  1.0000
  C   C39       1.0  0.30312  0.79561  0.26030  1.0000
  C   C40       1.0  0.34841  0.83874  0.25750  1.0000
  H   H16       1.0  0.37114  0.84384  0.20467  1.0000
  H   H17       1.0  0.19583  0.74788  0.23059  1.0000
  N   N7        1.0  0.29279  0.76334  0.19207  1.0000
  H   H18       1.0  0.26489  0.73123  0.19357  1.0000
  H   H19       1.0  0.31509  0.77011  0.14222  1.0000
  C   C41       1.0  0.65072  0.51117  0.35546  1.0000
  C   C42       1.0  0.68254  0.53633  0.28333  1.0000
  C   C43       1.0  0.73004  0.54354  0.28397  1.0000
  C   C44       1.0  0.74555  0.52197  0.34943  1.0000
  C   C45       1.0  0.79069  0.52291  0.33653  1.0000
  C   C46       1.0  0.80000  0.50168  0.26006  1.0000
  C   C47       1.0  0.84320  0.49963  0.25729  1.0000
  H   H20       1.0  0.84839  0.48215  0.20431  1.0000
  H   H21       1.0  0.75212  0.56113  0.23046  1.0000
  N   N8        1.0  0.76783  0.47986  0.19164  1.0000
  H   H22       1.0  0.73560  0.47533  0.19345  1.0000
  H   H23       1.0  0.77459  0.46419  0.14202  1.0000
  N   N9        1.0  0.66531  0.55081  0.20859  1.0000
  O   O9        1.0  0.69009  0.59549  0.19556  1.0000
  O   O10       1.0  0.66565  0.52946  0.13775  1.0000
  C   C48       1.0  0.50271  0.13983  0.35561  1.0000
  C   C49       1.0  0.47753  0.14647  0.28345  1.0000
  C   C50       1.0  0.47018  0.18666  0.28414  1.0000
  C   C51       1.0  0.49181  0.22380  0.34949  1.0000
  C   C52       1.0  0.49084  0.26797  0.33653  1.0000
  C   C53       1.0  0.51207  0.29850  0.26007  1.0000
  C   C54       1.0  0.51413  0.34375  0.25728  1.0000
  H   H24       1.0  0.53169  0.36648  0.20442  1.0000
  H   H25       1.0  0.45269  0.19119  0.23050  1.0000
  N   N10       1.0  0.53400  0.28822  0.19177  1.0000
  H   H26       1.0  0.53828  0.26036  0.19324  1.0000
  H   H27       1.0  0.54945  0.31051  0.14187  1.0000
  N   N11       1.0  0.46312  0.11479  0.20866  1.0000
  O   O11       1.0  0.41844  0.09482  0.19557  1.0000
  O   O12       1.0  0.48448  0.13653  0.13786  1.0000
  C   C55       1.0  0.87407  0.36313  0.35550  1.0000
  C   C56       1.0  0.86739  0.33130  0.28335  1.0000
  C   C57       1.0  0.82712  0.28380  0.28401  1.0000
  C   C58       1.0  0.79004  0.26829  0.34949  1.0000
  C   C59       1.0  0.74585  0.22315  0.33660  1.0000
  C   C60       1.0  0.71530  0.21386  0.26017  1.0000
  C   C61       1.0  0.67005  0.17066  0.25743  1.0000
  H   H28       1.0  0.64737  0.16548  0.20446  1.0000
  H   H29       1.0  0.82262  0.26173  0.23049  1.0000
  N   N12       1.0  0.72563  0.24603  0.19177  1.0000
  H   H30       1.0  0.75333  0.27826  0.19356  1.0000
  H   H31       1.0  0.70319  0.23928  0.14217  1.0000
  N   N13       1.0  0.89909  0.34854  0.20859  1.0000
  O   O13       1.0  0.91899  0.32377  0.19553  1.0000
  O   O14       1.0  0.87738  0.34820  0.13777  1.0000
  C   C62       1.0  0.49613  0.51762  0.34444  1.0000
  C   C63       1.0  0.44447  0.49222  0.34697  1.0000
  C   C64       1.0  0.41885  0.51804  0.34880  1.0000
  C   C65       1.0  0.44595  0.56878  0.34210  1.0000
  C   C66       1.0  0.49674  0.59529  0.33785  1.0000
  C   C67       1.0  0.52206  0.56926  0.34210  1.0000
  C   C68       1.0  0.42006  0.44133  0.34887  1.0000
  C   C69       1.0  0.57295  0.59329  0.34327  1.0000
  H   H32       1.0  0.42767  0.58754  0.34091  1.0000
  C   C70       1.0  0.52186  0.49150  0.34439  1.0000
  C   C71       1.0  0.49594  0.43986  0.34202  1.0000
  C   C72       1.0  0.52126  0.41384  0.33763  1.0000
  C   C73       1.0  0.57206  0.44036  0.34179  1.0000
  C   C74       1.0  0.59916  0.49108  0.34856  1.0000
  C   C75       1.0  0.57353  0.51690  0.34686  1.0000
  C   C76       1.0  0.44505  0.41583  0.34328  1.0000
  H   H33       1.0  0.59034  0.42160  0.34048  1.0000
  C   C77       1.0  0.59794  0.56780  0.34881  1.0000
  H   H34       1.0  0.42519  0.37903  0.34175  1.0000
  H   H35       1.0  0.38329  0.42177  0.35228  1.0000
  H   H36       1.0  0.63471  0.58736  0.35214  1.0000
  H   H37       1.0  0.59281  0.63010  0.34175  1.0000
  C   C78       1.0  0.49620  0.97876  0.34442  1.0000
  C   C79       1.0  0.52159  0.95249  0.34692  1.0000
  C   C80       1.0  0.49577  0.90105  0.34871  1.0000
  C   C81       1.0  0.44504  0.87743  0.34195  1.0000
  C   C82       1.0  0.41853  0.90172  0.33778  1.0000
  C   C83       1.0  0.44456  0.95307  0.34208  1.0000
  C   C84       1.0  0.57249  0.97898  0.34883  1.0000
  C   C85       1.0  0.42054  0.97993  0.34328  1.0000
  H   H38       1.0  0.42627  0.84039  0.34070  1.0000
  C   C86       1.0  0.52233  0.03062  0.34441  1.0000
  C   C87       1.0  0.57397  0.05632  0.34204  1.0000
  C   C88       1.0  0.59999  0.10767  0.33776  1.0000
  C   C89       1.0  0.57349  0.13196  0.34197  1.0000
  C   C90       1.0  0.52276  0.10833  0.34867  1.0000
  C   C91       1.0  0.49694  0.05689  0.34691  1.0000
  C   C92       1.0  0.59799  0.02946  0.34324  1.0000
  H   H39       1.0  0.59225  0.16900  0.34074  1.0000
  C   C93       1.0  0.44604  0.03041  0.34887  1.0000
  H   H40       1.0  0.63480  0.04640  0.34175  1.0000
  H   H41       1.0  0.59204  0.96176  0.35220  1.0000
  H   H42       1.0  0.42649  0.04762  0.35225  1.0000
  H   H43       1.0  0.38373  0.96299  0.34179  1.0000
  C   C94       1.0  0.30440  0.51246  0.42261  1.0000
  C   C95       1.0  0.34973  0.51475  0.42659  1.0000
  H   H44       1.0  0.37311  0.53459  0.47717  1.0000
  C   C96       1.0  0.19229  0.46771  0.40615  1.0000
  H   H45       1.0  0.19870  0.45316  0.46233  1.0000
  N   N14       1.0  0.29517  0.53762  0.48603  1.0000
  H   H46       1.0  0.31855  0.55597  0.53288  1.0000
  H   H47       1.0  0.26751  0.54215  0.48200  1.0000
  C   C97       1.0  0.50131  0.79219  0.42255  1.0000
  C   C98       1.0  0.49898  0.83521  0.42638  1.0000
  H   H48       1.0  0.47921  0.83884  0.47701  1.0000
  C   C99       1.0  0.51752  0.64686  0.33152  1.0000
  C   C100      1.0  0.53912  0.67742  0.40690  1.0000
  C   C101      1.0  0.54600  0.72477  0.40622  1.0000
  H   H49       1.0  0.56062  0.74580  0.46229  1.0000
  N   N15       1.0  0.47612  0.75784  0.48601  1.0000
  H   H50       1.0  0.45792  0.76293  0.53307  1.0000
  H   H51       1.0  0.47175  0.72569  0.48231  1.0000
  N   N16       1.0  0.55008  0.65889  0.48439  1.0000
  O   O15       1.0  0.52534  0.65780  0.55108  1.0000
  O   O16       1.0  0.59394  0.68347  0.50474  1.0000
  C   C102      1.0  0.22163  0.70943  0.42257  1.0000
  C   C103      1.0  0.36697  0.87095  0.33145  1.0000
  C   C104      1.0  0.33636  0.86195  0.40680  1.0000
  C   C105      1.0  0.28897  0.82154  0.40610  1.0000
  H   H52       1.0  0.26802  0.81513  0.46228  1.0000
  N   N17       1.0  0.25602  0.71867  0.48601  1.0000
  H   H53       1.0  0.25100  0.69530  0.53286  1.0000
  H   H54       1.0  0.28821  0.74634  0.48197  1.0000
  N   N18       1.0  0.35492  0.89141  0.48433  1.0000
  O   O17       1.0  0.35598  0.86772  0.55098  1.0000
  O   O18       1.0  0.33039  0.91074  0.50472  1.0000
  C   C106      1.0  0.71364  0.49672  0.42226  1.0000
  C   C107      1.0  0.66825  0.49430  0.42612  1.0000
  H   H55       1.0  0.64486  0.47448  0.47671  1.0000
  C   C108      1.0  0.87535  0.51333  0.33128  1.0000
  C   C109      1.0  0.86630  0.53484  0.40670  1.0000
  C   C110      1.0  0.82578  0.54163  0.40603  1.0000
  H   H56       1.0  0.81933  0.55619  0.46212  1.0000
  N   N19       1.0  0.72285  0.47152  0.48563  1.0000
  H   H57       1.0  0.69959  0.45333  0.53277  1.0000
  H   H58       1.0  0.75071  0.46729  0.48209  1.0000
  N   N20       1.0  0.89579  0.54581  0.48423  1.0000
  O   O19       1.0  0.87213  0.52101  0.55085  1.0000
  O   O20       1.0  0.91499  0.58965  0.50464  1.0000
  C   C111      1.0  0.51708  0.21717  0.42234  1.0000
  C   C112      1.0  0.51946  0.17418  0.42633  1.0000
  H   H59       1.0  0.53935  0.17071  0.47690  1.0000
  C   C113      1.0  0.50048  0.36228  0.33128  1.0000
  C   C114      1.0  0.47898  0.33168  0.40668  1.0000
  C   C115      1.0  0.47209  0.28433  0.40599  1.0000
  H   H60       1.0  0.45763  0.26338  0.46221  1.0000
  N   N21       1.0  0.54224  0.25161  0.48570  1.0000
  H   H61       1.0  0.56066  0.24666  0.53250  1.0000
  H   H62       1.0  0.54671  0.28378  0.48162  1.0000
  N   N22       1.0  0.46808  0.35021  0.48425  1.0000
  O   O21       1.0  0.49289  0.35133  0.55084  1.0000
  O   O22       1.0  0.42424  0.32562  0.50474  1.0000
  C   C116      1.0  0.79672  0.30019  0.42234  1.0000
  C   C117      1.0  0.83968  0.34558  0.42619  1.0000
  H   H63       1.0  0.84326  0.36897  0.47679  1.0000
  C   C118      1.0  0.65155  0.13845  0.33137  1.0000
  C   C119      1.0  0.68217  0.14754  0.40673  1.0000
  C   C120      1.0  0.72949  0.18805  0.40606  1.0000
  H   H64       1.0  0.75052  0.19450  0.46214  1.0000
  N   N23       1.0  0.76232  0.29098  0.48574  1.0000
  H   H65       1.0  0.76739  0.31423  0.53288  1.0000
  H   H66       1.0  0.73023  0.26311  0.48221  1.0000
  N   N24       1.0  0.66368  0.11806  0.48426  1.0000
  O   O23       1.0  0.66254  0.14170  0.55091  1.0000
  O   O24       1.0  0.68832  0.09885  0.50464  1.0000
