data_image0
_chemical_formula_structural       C18H17C3OH2C2OH2C3NC3NC5NC4NC35H25C3HOHC4HOH
_chemical_formula_sum              "C80 H50 O4 N4"
_cell_length_a       30.0307
_cell_length_b       30.0304
_cell_length_c       14.8793
_cell_angle_alpha    90
_cell_angle_beta     90
_cell_angle_gamma    89.9285

_space_group_name_H-M_alt    "P 1"
_space_group_IT_number       1

loop_
  _space_group_symop_operation_xyz
  'x, y, z'

loop_
  _atom_site_type_symbol
  _atom_site_label
  _atom_site_symmetry_multiplicity
  _atom_site_fract_x
  _atom_site_fract_y
  _atom_site_fract_z
  _atom_site_occupancy
  C   C1        1.0  0.09675  0.04720  0.34263  1.0000
  C   C2        1.0  0.99426  0.24034  0.26181  1.0000
  C   C3        1.0  0.99398  0.19340  0.26212  1.0000
  C   C4        1.0  0.97122  0.33781  0.29087  1.0000
  C   C5        1.0  0.97179  0.38474  0.29024  1.0000
  C   C6        1.0  0.00410  0.40890  0.33928  1.0000
  C   C7        1.0  0.23730  0.01227  0.26389  1.0000
  C   C8        1.0  0.19036  0.01227  0.26329  1.0000
  C   C9        1.0  0.38126  0.03626  0.29612  1.0000
  C   C10       1.0  0.33432  0.03633  0.29559  1.0000
  C   C11       1.0  0.00931  0.81553  0.26304  1.0000
  C   C12       1.0  0.01009  0.76860  0.26343  1.0000
  C   C13       1.0  0.03593  0.62480  0.29484  1.0000
  C   C14       1.0  0.03543  0.67175  0.29458  1.0000
  C   C15       1.0  0.81220  0.99695  0.26273  1.0000
  C   C16       1.0  0.76527  0.99686  0.26285  1.0000
  C   C17       1.0  0.66834  0.97233  0.29304  1.0000
  C   C18       1.0  0.62141  0.97220  0.29269  1.0000
  H   H1        1.0  0.60530  0.94781  0.25738  1.0000
  H   H2        1.0  0.68458  0.94794  0.25789  1.0000
  H   H3        1.0  0.74918  0.99195  0.20305  1.0000
  H   H4        1.0  0.82874  0.99152  0.20357  1.0000
  H   H5        1.0  0.01464  0.83206  0.20385  1.0000
  H   H6        1.0  0.01536  0.75248  0.20379  1.0000
  H   H7        1.0  0.09140  0.15465  0.34215  1.0000
  H   H8        1.0  0.17398  0.01787  0.20401  1.0000
  H   H9        1.0  0.25355  0.01730  0.20433  1.0000
  H   H10       1.0  0.31833  0.06084  0.26029  1.0000
  H   H11       1.0  0.39766  0.06048  0.26085  1.0000
  H   H12       1.0  0.98867  0.17678  0.20302  1.0000
  H   H13       1.0  0.98967  0.25634  0.20181  1.0000
  H   H14       1.0  0.94764  0.40122  0.25481  1.0000
  H   H15       1.0  0.94660  0.32194  0.25579  1.0000
  H   H16       1.0  0.05970  0.68802  0.25928  1.0000
  H   H17       1.0  0.06030  0.60867  0.25940  1.0000
  C   C19       1.0  0.00496  0.52887  0.26179  1.0000
  C   C20       1.0  0.00414  0.48184  0.25888  1.0000
  C   C21       1.0  0.00434  0.45663  0.33954  1.0000
  O   O1        1.0  0.00687  0.46130  0.17737  1.0000
  H   H18       1.0  0.00531  0.54600  0.20229  1.0000
  H   H19       1.0  0.97817  0.46613  0.14701  1.0000
  C   C22       1.0  0.47693  0.00443  0.26363  1.0000
  C   C23       1.0  0.52396  0.00364  0.26101  1.0000
  O   O2        1.0  0.54458  0.00644  0.17960  1.0000
  H   H20       1.0  0.45989  0.00484  0.20402  1.0000
  H   H21       1.0  0.54006  0.97767  0.14933  1.0000
  C   C24       1.0  0.88574  0.08741  0.34253  1.0000
  C   C25       1.0  0.91823  0.11993  0.34280  1.0000
  C   C26       1.0  0.95987  0.09909  0.34264  1.0000
  N   N1        1.0  0.95092  0.05476  0.34297  1.0000
  C   C27       1.0  0.90660  0.04578  0.34303  1.0000
  C   C28       1.0  0.88398  0.00405  0.34303  1.0000
  C   C29       1.0  0.90561  0.96187  0.34297  1.0000
  N   N2        1.0  0.94985  0.95316  0.34299  1.0000
  C   C30       1.0  0.95859  0.90892  0.34309  1.0000
  C   C31       1.0  0.91714  0.88787  0.34288  1.0000
  C   C32       1.0  0.88459  0.92039  0.34331  1.0000
  C   C33       1.0  0.00080  0.88733  0.34289  1.0000
  C   C34       1.0  0.04249  0.91000  0.34276  1.0000
  N   N3        1.0  0.05143  0.95433  0.34276  1.0000
  C   C35       1.0  0.09574  0.96331  0.34299  1.0000
  C   C36       1.0  0.11662  0.92169  0.34283  1.0000
  C   C37       1.0  0.08414  0.88918  0.34324  1.0000
  C   C38       1.0  0.11838  0.00502  0.34284  1.0000
  N   N4        1.0  0.05251  0.05591  0.34274  1.0000
  C   C39       1.0  0.04377  0.10014  0.34283  1.0000
  C   C40       1.0  0.08523  0.12119  0.34246  1.0000
  C   C41       1.0  0.11778  0.08867  0.34290  1.0000
  C   C42       1.0  0.00158  0.12174  0.34272  1.0000
  C   C43       1.0  0.00124  0.16944  0.34250  1.0000
  C   C44       1.0  0.00888  0.19369  0.42238  1.0000
  C   C45       1.0  0.00944  0.24061  0.42167  1.0000
  C   C46       1.0  0.00215  0.26506  0.34144  1.0000
  C   C47       1.0  0.00281  0.31293  0.34079  1.0000
  C   C48       1.0  0.03557  0.38420  0.38963  1.0000
  C   C49       1.0  0.03498  0.33726  0.39020  1.0000
  C   C50       1.0  0.16608  0.00466  0.34313  1.0000
  C   C51       1.0  0.19000  0.99688  0.42337  1.0000
  C   C52       1.0  0.23693  0.99659  0.42357  1.0000
  C   C53       1.0  0.26169  0.00437  0.34395  1.0000
  C   C54       1.0  0.30955  0.00429  0.34444  1.0000
  C   C55       1.0  0.33399  0.97208  0.39365  1.0000
  C   C56       1.0  0.38093  0.97200  0.39427  1.0000
  C   C57       1.0  0.40552  0.00422  0.34586  1.0000
  C   C58       1.0  0.00126  0.83963  0.34297  1.0000
  C   C59       1.0  0.00253  0.74401  0.34335  1.0000
  C   C60       1.0  0.99433  0.76858  0.42307  1.0000
  C   C61       1.0  0.99386  0.81551  0.42310  1.0000
  C   C62       1.0  0.00310  0.69614  0.34359  1.0000
  C   C63       1.0  0.97121  0.67132  0.39270  1.0000
  C   C64       1.0  0.97169  0.62439  0.39304  1.0000
  C   C65       1.0  0.00420  0.60017  0.34450  1.0000
  C   C66       1.0  0.83627  0.00441  0.34288  1.0000
  C   C67       1.0  0.81212  0.01197  0.42294  1.0000
  C   C68       1.0  0.76519  0.01215  0.42267  1.0000
  C   C69       1.0  0.74064  0.00448  0.34273  1.0000
  C   C70       1.0  0.69276  0.00435  0.34262  1.0000
  C   C71       1.0  0.59678  0.00420  0.34177  1.0000
  C   C72       1.0  0.62101  0.03604  0.39195  1.0000
  C   C73       1.0  0.66796  0.03615  0.39221  1.0000
  H   H22       1.0  0.60457  0.06010  0.42771  1.0000
  H   H23       1.0  0.68391  0.06052  0.42783  1.0000
  H   H24       1.0  0.74904  0.01700  0.48242  1.0000
  H   H25       1.0  0.82862  0.01725  0.48221  1.0000
  H   H26       1.0  0.85231  0.09379  0.34215  1.0000
  H   H27       1.0  0.91185  0.15336  0.34292  1.0000
  H   H28       1.0  0.97355  0.03214  0.34318  1.0000
  H   H29       1.0  0.02879  0.97695  0.34258  1.0000
  H   H30       1.0  0.85113  0.91421  0.34365  1.0000
  H   H31       1.0  0.91099  0.85440  0.34259  1.0000
  H   H32       1.0  0.98816  0.83201  0.48220  1.0000
  H   H33       1.0  0.98950  0.75246  0.48286  1.0000
  H   H34       1.0  0.09056  0.85575  0.34370  1.0000
  H   H35       1.0  0.15006  0.91531  0.34263  1.0000
  H   H36       1.0  0.15123  0.09485  0.34319  1.0000
  H   H37       1.0  0.17334  0.99148  0.48240  1.0000
  H   H38       1.0  0.25291  0.99152  0.48344  1.0000
  H   H39       1.0  0.39707  0.94748  0.42926  1.0000
  H   H40       1.0  0.31778  0.94755  0.42833  1.0000
  H   H41       1.0  0.05906  0.32094  0.42605  1.0000
  H   H42       1.0  0.05981  0.40027  0.42546  1.0000
  H   H43       1.0  0.01453  0.25684  0.48125  1.0000
  H   H44       1.0  0.01420  0.17727  0.48173  1.0000
  H   H45       1.0  0.94646  0.68724  0.42742  1.0000
  H   H46       1.0  0.94735  0.60797  0.42791  1.0000
  C   C74       1.0  0.00458  0.48019  0.42193  1.0000
  C   C75       1.0  0.00381  0.52723  0.42481  1.0000
  C   C76       1.0  0.00440  0.55243  0.34417  1.0000
  H   H47       1.0  0.00463  0.46307  0.48143  1.0000
  O   O3        1.0  0.00623  0.54774  0.50639  1.0000
  H   H48       1.0  0.97739  0.54304  0.53625  1.0000
  C   C77       1.0  0.54905  0.00396  0.34182  1.0000
  C   C78       1.0  0.52536  0.00411  0.42406  1.0000
  C   C79       1.0  0.47833  0.00332  0.42667  1.0000
  C   C80       1.0  0.45325  0.00396  0.34586  1.0000
  H   H49       1.0  0.54240  0.00427  0.48366  1.0000
  O   O4        1.0  0.45769  0.00576  0.50810  1.0000
  H   H50       1.0  0.46228  0.97687  0.53786  1.0000
