data_image0
_chemical_formula_structural       C3H2C4HCH3C3HCH3C3HCH3C3HCH3C3HCH3C3HCH3C20H13C24H15C24H15C24H15C3HCH3C3HCH3C3HCH3C3HCH3C3HCH3C3HCH3
_chemical_formula_sum              "C144 H108"
_cell_length_a       45.8233
_cell_length_b       45.8233
_cell_length_c       14.9572
_cell_angle_alpha    90
_cell_angle_beta     90
_cell_angle_gamma    120

_space_group_name_H-M_alt    "P 1"
_space_group_IT_number       1

loop_
  _space_group_symop_operation_xyz
  'x, y, z'

loop_
  _atom_site_type_symbol
  _atom_site_label
  _atom_site_symmetry_multiplicity
  _atom_site_fract_x
  _atom_site_fract_y
  _atom_site_fract_z
  _atom_site_occupancy
  C   C1        1.0  0.01120  0.03229  0.33532  1.0000
  C   C2        1.0  0.02950  0.01487  0.33621  1.0000
  C   C3        1.0  0.01074  0.97917  0.33673  1.0000
  H   H1        1.0  0.02406  0.05806  0.33192  1.0000
  H   H2        1.0  0.02324  0.96591  0.34042  1.0000
  C   C4        1.0  0.06574  0.03276  0.33683  1.0000
  C   C5        1.0  0.19341  0.09010  0.26003  1.0000
  C   C6        1.0  0.22908  0.10794  0.25855  1.0000
  C   C7        1.0  0.24712  0.12394  0.33830  1.0000
  H   H3        1.0  0.18067  0.07964  0.20189  1.0000
  C   C8        1.0  0.24652  0.10880  0.17349  1.0000
  H   H4        1.0  0.22909  0.09364  0.12057  1.0000
  H   H5        1.0  0.26361  0.09906  0.18501  1.0000
  H   H6        1.0  0.26097  0.13460  0.14889  1.0000
  C   C9        1.0  0.90052  0.10286  0.25653  1.0000
  C   C10       1.0  0.88274  0.12075  0.25540  1.0000
  C   C11       1.0  0.86737  0.12336  0.33580  1.0000
  H   H7        1.0  0.91172  0.10112  0.19907  1.0000
  C   C12       1.0  0.88141  0.13691  0.17004  1.0000
  H   H8        1.0  0.89609  0.13417  0.11656  1.0000
  H   H9        1.0  0.89141  0.16384  0.18057  1.0000
  H   H10       1.0  0.85545  0.12558  0.14674  1.0000
  C   C13       1.0  0.88776  0.79828  0.26053  1.0000
  C   C14       1.0  0.87005  0.76262  0.25966  1.0000
  C   C15       1.0  0.86772  0.74477  0.34011  1.0000
  H   H11       1.0  0.88934  0.81112  0.20302  1.0000
  C   C16       1.0  0.85380  0.74499  0.17452  1.0000
  H   H12       1.0  0.85632  0.76231  0.12100  1.0000
  H   H13       1.0  0.82693  0.72794  0.18541  1.0000
  H   H14       1.0  0.86524  0.73047  0.15106  1.0000
  C   C17       1.0  0.59996  0.14862  0.34411  1.0000
  C   C18       1.0  0.54579  0.13348  0.27129  1.0000
  C   C19       1.0  0.57671  0.13362  0.27350  1.0000
  H   H15       1.0  0.58297  0.12350  0.22084  1.0000
  C   C20       1.0  0.52385  0.11753  0.19181  1.0000
  H   H16       1.0  0.49948  0.11620  0.19657  1.0000
  H   H17       1.0  0.51894  0.09176  0.18420  1.0000
  H   H18       1.0  0.53654  0.13178  0.13173  1.0000
  C   C21       1.0  0.84281  0.45191  0.34401  1.0000
  C   C22       1.0  0.85792  0.41297  0.27052  1.0000
  C   C23       1.0  0.85777  0.44374  0.27313  1.0000
  H   H19       1.0  0.86787  0.46018  0.22060  1.0000
  C   C24       1.0  0.87385  0.40708  0.19081  1.0000
  H   H20       1.0  0.87520  0.38405  0.19524  1.0000
  H   H21       1.0  0.89961  0.42796  0.18324  1.0000
  H   H22       1.0  0.85958  0.40559  0.13085  1.0000
  C   C25       1.0  0.53970  0.39175  0.34300  1.0000
  C   C26       1.0  0.57875  0.44589  0.27010  1.0000
  C   C27       1.0  0.54799  0.41495  0.27225  1.0000
  H   H23       1.0  0.53165  0.40865  0.21947  1.0000
  C   C28       1.0  0.58478  0.46779  0.19052  1.0000
  H   H24       1.0  0.60780  0.49219  0.19531  1.0000
  H   H25       1.0  0.56391  0.47267  0.18266  1.0000
  H   H26       1.0  0.58641  0.45509  0.13055  1.0000
  C   C29       1.0  0.97555  0.01521  0.33520  1.0000
  C   C30       1.0  0.97508  0.96108  0.33643  1.0000
  C   C31       1.0  0.95793  0.97957  0.33573  1.0000
  C   C32       1.0  0.08440  0.06276  0.38694  1.0000
  C   C33       1.0  0.11988  0.08041  0.38717  1.0000
  C   C34       1.0  0.13850  0.06877  0.33806  1.0000
  C   C35       1.0  0.11984  0.03867  0.28832  1.0000
  C   C36       1.0  0.08435  0.02118  0.28743  1.0000
  C   C37       1.0  0.95785  0.03350  0.33481  1.0000
  C   C38       1.0  0.96569  0.05958  0.39737  1.0000
  C   C39       1.0  0.94794  0.07732  0.39795  1.0000
  C   C40       1.0  0.92218  0.07006  0.33488  1.0000
  C   C41       1.0  0.91457  0.04422  0.27172  1.0000
  C   C42       1.0  0.93189  0.02605  0.27220  1.0000
  C   C43       1.0  0.95689  0.92508  0.33708  1.0000
  C   C44       1.0  0.93093  0.90693  0.40000  1.0000
  C   C45       1.0  0.91330  0.87144  0.40113  1.0000
  C   C46       1.0  0.92055  0.85286  0.33827  1.0000
  C   C47       1.0  0.94628  0.87102  0.27480  1.0000
  C   C48       1.0  0.96434  0.90650  0.27474  1.0000
  H   H27       1.0  0.95440  0.09602  0.44423  1.0000
  H   H28       1.0  0.98402  0.06547  0.44442  1.0000
  H   H29       1.0  0.89584  0.03795  0.22564  1.0000
  H   H30       1.0  0.92568  0.00760  0.22531  1.0000
  H   H31       1.0  0.92502  0.91944  0.44680  1.0000
  H   H32       1.0  0.89467  0.85924  0.44762  1.0000
  H   H33       1.0  0.98270  0.91868  0.22756  1.0000
  H   H34       1.0  0.95255  0.85851  0.22886  1.0000
  H   H35       1.0  0.07223  0.99997  0.24886  1.0000
  H   H36       1.0  0.13191  0.02879  0.25268  1.0000
  H   H37       1.0  0.13199  0.10231  0.42305  1.0000
  H   H38       1.0  0.07232  0.07202  0.42505  1.0000
  H   H39       1.0  0.93212  0.96683  0.33568  1.0000
  C   C49       1.0  0.44535  0.25198  0.33463  1.0000
  C   C50       1.0  0.40988  0.23347  0.34036  1.0000
  C   C51       1.0  0.39175  0.19768  0.33697  1.0000
  C   C52       1.0  0.41071  0.18091  0.33037  1.0000
  C   C53       1.0  0.44635  0.19870  0.32645  1.0000
  C   C54       1.0  0.46308  0.23426  0.32920  1.0000
  C   C55       1.0  0.35547  0.17916  0.33780  1.0000
  C   C56       1.0  0.33643  0.19163  0.29403  1.0000
  C   C57       1.0  0.30097  0.17375  0.29497  1.0000
  C   C58       1.0  0.28310  0.14217  0.33787  1.0000
  C   C59       1.0  0.30166  0.12924  0.38101  1.0000
  C   C60       1.0  0.33716  0.14757  0.38158  1.0000
  C   C61       1.0  0.46382  0.28775  0.33167  1.0000
  C   C62       1.0  0.46624  0.30723  0.40747  1.0000
  C   C63       1.0  0.49008  0.34195  0.41000  1.0000
  C   C64       1.0  0.51176  0.35821  0.33657  1.0000
  C   C65       1.0  0.50796  0.33881  0.25925  1.0000
  C   C66       1.0  0.48451  0.30413  0.25700  1.0000
  C   C67       1.0  0.46577  0.18216  0.32123  1.0000
  C   C68       1.0  0.49392  0.19452  0.26322  1.0000
  C   C69       1.0  0.51677  0.18263  0.26851  1.0000
  C   C70       1.0  0.51180  0.15732  0.33058  1.0000
  C   C71       1.0  0.48261  0.14327  0.38472  1.0000
  C   C72       1.0  0.45997  0.15563  0.38029  1.0000
  H   H40       1.0  0.49252  0.35500  0.46765  1.0000
  H   H41       1.0  0.45253  0.29586  0.46375  1.0000
  H   H42       1.0  0.52399  0.34915  0.20611  1.0000
  H   H43       1.0  0.48399  0.29054  0.20204  1.0000
  H   H44       1.0  0.49904  0.21361  0.21925  1.0000
  H   H45       1.0  0.53786  0.19364  0.22907  1.0000
  H   H46       1.0  0.44042  0.14656  0.42483  1.0000
  H   H47       1.0  0.47864  0.12524  0.43112  1.0000
  H   H48       1.0  0.34949  0.13765  0.41585  1.0000
  H   H49       1.0  0.28943  0.10653  0.41336  1.0000
  H   H50       1.0  0.28827  0.18385  0.26326  1.0000
  H   H51       1.0  0.34818  0.21384  0.25945  1.0000
  H   H52       1.0  0.39722  0.24651  0.34599  1.0000
  H   H53       1.0  0.48890  0.24773  0.32853  1.0000
  H   H54       1.0  0.39841  0.15522  0.32489  1.0000
  C   C73       1.0  0.73973  0.19407  0.33472  1.0000
  C   C74       1.0  0.75821  0.17708  0.34012  1.0000
  C   C75       1.0  0.79399  0.19467  0.33593  1.0000
  C   C76       1.0  0.81078  0.23039  0.32901  1.0000
  C   C77       1.0  0.79302  0.24828  0.32546  1.0000
  C   C78       1.0  0.75747  0.22950  0.32889  1.0000
  C   C79       1.0  0.81245  0.17682  0.33631  1.0000
  C   C80       1.0  0.79965  0.14511  0.29345  1.0000
  C   C81       1.0  0.81743  0.12742  0.29409  1.0000
  C   C82       1.0  0.84926  0.14123  0.33567  1.0000
  C   C83       1.0  0.86253  0.17294  0.37784  1.0000
  C   C84       1.0  0.84429  0.19019  0.37883  1.0000
  C   C85       1.0  0.70395  0.17680  0.33220  1.0000
  C   C86       1.0  0.68459  0.15985  0.40824  1.0000
  C   C87       1.0  0.64988  0.14899  0.41104  1.0000
  C   C88       1.0  0.63350  0.15422  0.33759  1.0000
  C   C89       1.0  0.65281  0.16976  0.26008  1.0000
  C   C90       1.0  0.68749  0.18098  0.25752  1.0000
  C   C91       1.0  0.80957  0.28424  0.32001  1.0000
  C   C92       1.0  0.79710  0.29998  0.26215  1.0000
  C   C93       1.0  0.80895  0.33473  0.26742  1.0000
  C   C94       1.0  0.83426  0.35509  0.32947  1.0000
  C   C95       1.0  0.84840  0.34001  0.38344  1.0000
  C   C96       1.0  0.83612  0.30502  0.37895  1.0000
  H   H55       1.0  0.63689  0.13841  0.46878  1.0000
  H   H56       1.0  0.69604  0.15760  0.46447  1.0000
  H   H57       1.0  0.64240  0.17535  0.20694  1.0000
  H   H58       1.0  0.70100  0.19399  0.20244  1.0000
  H   H59       1.0  0.77797  0.28598  0.21835  1.0000
  H   H60       1.0  0.79781  0.34475  0.22826  1.0000
  H   H61       1.0  0.84529  0.29457  0.42331  1.0000
  H   H62       1.0  0.86647  0.35409  0.42971  1.0000
  H   H63       1.0  0.85448  0.21260  0.41242  1.0000
  H   H64       1.0  0.88542  0.18349  0.40927  1.0000
  H   H65       1.0  0.80707  0.10446  0.26309  1.0000
  H   H66       1.0  0.77726  0.13456  0.25970  1.0000
  H   H67       1.0  0.74514  0.15139  0.34603  1.0000
  H   H68       1.0  0.74403  0.24189  0.32846  1.0000
  H   H69       1.0  0.83645  0.24376  0.32300  1.0000
  C   C97       1.0  0.79758  0.54644  0.33638  1.0000
  C   C98       1.0  0.81455  0.58191  0.34258  1.0000
  C   C99       1.0  0.79695  0.60009  0.33888  1.0000
  C   C100      1.0  0.76123  0.58116  0.33151  1.0000
  C   C101      1.0  0.74336  0.54553  0.32721  1.0000
  C   C102      1.0  0.76215  0.52876  0.33027  1.0000
  C   C103      1.0  0.81474  0.63639  0.34002  1.0000
  C   C104      1.0  0.84647  0.65546  0.29735  1.0000
  C   C105      1.0  0.86403  0.69093  0.29834  1.0000
  C   C106      1.0  0.85008  0.70878  0.34014  1.0000
  C   C107      1.0  0.81839  0.69019  0.38231  1.0000
  C   C108      1.0  0.80127  0.65469  0.38292  1.0000
  C   C109      1.0  0.81485  0.52794  0.33350  1.0000
  C   C110      1.0  0.83162  0.52523  0.40952  1.0000
  C   C111      1.0  0.84247  0.50135  0.41183  1.0000
  C   C112      1.0  0.83725  0.47990  0.33802  1.0000
  C   C113      1.0  0.82186  0.48394  0.26057  1.0000
  C   C114      1.0  0.81069  0.50744  0.25850  1.0000
  C   C115      1.0  0.70740  0.52613  0.32136  1.0000
  C   C116      1.0  0.69173  0.49801  0.26321  1.0000
  C   C117      1.0  0.65697  0.47514  0.26798  1.0000
  C   C118      1.0  0.63652  0.48003  0.32983  1.0000
  C   C119      1.0  0.65154  0.50915  0.38420  1.0000
  C   C120      1.0  0.68654  0.53186  0.38012  1.0000
  H   H70       1.0  0.85300  0.49880  0.46950  1.0000
  H   H71       1.0  0.83394  0.53887  0.46590  1.0000
  H   H72       1.0  0.81622  0.46801  0.20722  1.0000
  H   H73       1.0  0.79774  0.50809  0.20345  1.0000
  H   H74       1.0  0.70578  0.49297  0.21932  1.0000
  H   H75       1.0  0.64698  0.45409  0.22842  1.0000
  H   H76       1.0  0.69692  0.55138  0.42478  1.0000
  H   H77       1.0  0.63739  0.51311  0.43031  1.0000
  H   H78       1.0  0.77884  0.64235  0.41639  1.0000
  H   H79       1.0  0.80773  0.70240  0.41382  1.0000
  H   H80       1.0  0.88696  0.70365  0.26726  1.0000
  H   H81       1.0  0.85710  0.64375  0.26334  1.0000
  H   H82       1.0  0.84023  0.59452  0.34872  1.0000
  H   H83       1.0  0.74977  0.50293  0.32933  1.0000
  H   H84       1.0  0.74787  0.59348  0.32576  1.0000
  C   C121      1.0  0.17475  0.08686  0.33832  1.0000
  C   C122      1.0  0.22890  0.12117  0.41823  1.0000
  C   C123      1.0  0.19326  0.10239  0.41673  1.0000
  H   H85       1.0  0.18044  0.09992  0.47493  1.0000
  C   C124      1.0  0.24475  0.13745  0.50501  1.0000
  H   H86       1.0  0.27204  0.15334  0.50176  1.0000
  H   H87       1.0  0.23891  0.11807  0.55546  1.0000
  H   H88       1.0  0.23471  0.15339  0.52726  1.0000
  C   C125      1.0  0.90420  0.08808  0.33530  1.0000
  C   C126      1.0  0.87065  0.10836  0.41608  1.0000
  C   C127      1.0  0.88937  0.09143  0.41440  1.0000
  H   H89       1.0  0.89136  0.08031  0.47177  1.0000
  C   C128      1.0  0.85494  0.10842  0.50340  1.0000
  H   H90       1.0  0.83906  0.11984  0.50042  1.0000
  H   H91       1.0  0.87465  0.12223  0.55287  1.0000
  H   H92       1.0  0.83911  0.08257  0.52677  1.0000
  C   C129      1.0  0.90262  0.81686  0.33909  1.0000
  C   C130      1.0  0.88276  0.76317  0.42020  1.0000
  C   C131      1.0  0.89950  0.79881  0.41827  1.0000
  H   H93       1.0  0.91068  0.81202  0.47549  1.0000
  C   C132      1.0  0.88292  0.74752  0.50755  1.0000
  H   H94       1.0  0.87159  0.72024  0.50476  1.0000
  H   H95       1.0  0.86915  0.75342  0.55717  1.0000
  H   H96       1.0  0.90883  0.75768  0.53060  1.0000
  C   C133      1.0  0.59081  0.16229  0.41613  1.0000
  C   C134      1.0  0.56043  0.16327  0.41610  1.0000
  C   C135      1.0  0.53790  0.14927  0.34206  1.0000
  H   H97       1.0  0.60791  0.17428  0.46632  1.0000
  C   C136      1.0  0.55424  0.18091  0.49133  1.0000
  H   H98       1.0  0.57448  0.19107  0.54081  1.0000
  H   H99       1.0  0.53109  0.16336  0.52605  1.0000
  H   H100      1.0  0.55183  0.20191  0.46574  1.0000
  C   C137      1.0  0.82915  0.42898  0.41581  1.0000
  C   C138      1.0  0.82820  0.39764  0.41540  1.0000
  C   C139      1.0  0.84220  0.38920  0.34115  1.0000
  H   H101      1.0  0.81719  0.43404  0.46618  1.0000
  C   C140      1.0  0.81059  0.37372  0.49049  1.0000
  H   H102      1.0  0.80042  0.38372  0.54014  1.0000
  H   H103      1.0  0.82818  0.36811  0.52504  1.0000
  H   H104      1.0  0.78961  0.35032  0.46478  1.0000
  C   C141      1.0  0.56247  0.40095  0.41514  1.0000
  C   C142      1.0  0.59381  0.43135  0.41517  1.0000
  C   C143      1.0  0.60238  0.45386  0.34106  1.0000
  H   H105      1.0  0.55732  0.38387  0.46541  1.0000
  C   C144      1.0  0.61758  0.43756  0.49057  1.0000
  H   H106      1.0  0.60750  0.41733  0.54003  1.0000
  H   H107      1.0  0.62311  0.46071  0.52529  1.0000
  H   H108      1.0  0.64104  0.44003  0.46516  1.0000
