data_image0
_chemical_formula_structural       C4HC6H3C4HC6H3CNCHNHCNCHNHCNCHNHCNCHNHC4HC6H3C4HC6H3C4HC6H3C4HC6H3CNCHNHCNCHNHCNCHNHCNCHNHC4HC6H3C4HC6H3C4HC6H3C4HC6H3C6H3C6H3C6H3C6H3C6H3C6H3C6H3C6H3C6H3C6H3C6H3C6H3CNCHNHCNCHNHC4HC6H3C4HC6H3C4HC6H3C4HC6H3CNCHNHCNCHNHCNCHNHCNCHNHC4HC6H3C4HC6H3C4HC6H3C4HC6H3CNCHNHCNCHNHCNCHNHCNCHNH
_chemical_formula_sum              "C288 H144 N36"
_cell_length_a       51.2688
_cell_length_b       51.1102
_cell_length_c       14.9327
_cell_angle_alpha    90
_cell_angle_beta     90
_cell_angle_gamma    90.1808

_space_group_name_H-M_alt    "P 1"
_space_group_IT_number       1

loop_
  _space_group_symop_operation_xyz
  'x, y, z'

loop_
  _atom_site_type_symbol
  _atom_site_label
  _atom_site_symmetry_multiplicity
  _atom_site_fract_x
  _atom_site_fract_y
  _atom_site_fract_z
  _atom_site_occupancy
  C   C1        1.0  0.04932  0.45299  0.33539  1.0000
  C   C2        1.0  0.01057  0.49208  0.33395  1.0000
  C   C3        1.0  0.02062  0.48255  0.25139  1.0000
  C   C4        1.0  0.04006  0.46298  0.25321  1.0000
  H   H1        1.0  0.04749  0.45591  0.19435  1.0000
  C   C5        1.0  0.99107  0.51167  0.33402  1.0000
  C   C6        1.0  0.95213  0.55058  0.33579  1.0000
  C   C7        1.0  0.96200  0.54124  0.25352  1.0000
  C   C8        1.0  0.98152  0.52175  0.25155  1.0000
  C   C9        1.0  0.99164  0.51214  0.17009  1.0000
  C   C10       1.0  0.01101  0.49273  0.17002  1.0000
  H   H2        1.0  0.98499  0.51917  0.11017  1.0000
  H   H3        1.0  0.01801  0.48609  0.11004  1.0000
  H   H4        1.0  0.95491  0.54871  0.19473  1.0000
  C   C11       1.0  0.54883  0.04848  0.33551  1.0000
  C   C12       1.0  0.50989  0.00933  0.33399  1.0000
  C   C13       1.0  0.51957  0.01930  0.25144  1.0000
  C   C14       1.0  0.53907  0.03893  0.25329  1.0000
  H   H5        1.0  0.54626  0.04630  0.19444  1.0000
  C   C15       1.0  0.49037  0.98965  0.33407  1.0000
  C   C16       1.0  0.45152  0.95043  0.33584  1.0000
  C   C17       1.0  0.46102  0.96018  0.25355  1.0000
  C   C18       1.0  0.48048  0.97983  0.25158  1.0000
  C   C19       1.0  0.49024  0.98987  0.17011  1.0000
  C   C20       1.0  0.50959  0.00942  0.17004  1.0000
  H   H6        1.0  0.48335  0.98304  0.11018  1.0000
  H   H7        1.0  0.51634  0.01637  0.11007  1.0000
  H   H8        1.0  0.45368  0.95291  0.19475  1.0000
  C   C21       1.0  0.07075  0.34576  0.26123  1.0000
  N   N1        1.0  0.06528  0.31977  0.26429  1.0000
  C   C22       1.0  0.04871  0.23962  0.25904  1.0000
  H   H9        1.0  0.07264  0.35464  0.20023  1.0000
  N   N2        1.0  0.05406  0.26563  0.26317  1.0000
  H   H10       1.0  0.04666  0.23099  0.19768  1.0000
  C   C23       1.0  0.93018  0.65785  0.26114  1.0000
  N   N3        1.0  0.93583  0.68381  0.26417  1.0000
  C   C24       1.0  0.95238  0.76395  0.25885  1.0000
  H   H11       1.0  0.92778  0.64908  0.20016  1.0000
  N   N4        1.0  0.94713  0.73793  0.26301  1.0000
  H   H12       1.0  0.95396  0.77268  0.19750  1.0000
  C   C25       1.0  0.65585  0.07057  0.26098  1.0000
  N   N5        1.0  0.68173  0.06500  0.26399  1.0000
  C   C26       1.0  0.76170  0.04888  0.25880  1.0000
  H   H13       1.0  0.64709  0.07282  0.20000  1.0000
  N   N6        1.0  0.73573  0.05394  0.26289  1.0000
  H   H14       1.0  0.77040  0.04736  0.19746  1.0000
  C   C27       1.0  0.34485  0.92963  0.26140  1.0000
  N   N7        1.0  0.31911  0.93574  0.26437  1.0000
  C   C28       1.0  0.23978  0.95421  0.25863  1.0000
  H   H15       1.0  0.35375  0.92789  0.20045  1.0000
  N   N8        1.0  0.26555  0.94828  0.26296  1.0000
  H   H16       1.0  0.23129  0.95653  0.19723  1.0000
  C   C29       1.0  0.42602  0.85759  0.33599  1.0000
  C   C30       1.0  0.43784  0.80379  0.33461  1.0000
  C   C31       1.0  0.43436  0.81719  0.25200  1.0000
  C   C32       1.0  0.42842  0.84417  0.25377  1.0000
  H   H17       1.0  0.42566  0.85409  0.19493  1.0000
  C   C33       1.0  0.44367  0.77674  0.33490  1.0000
  C   C34       1.0  0.45515  0.72288  0.33737  1.0000
  C   C35       1.0  0.45178  0.73594  0.25488  1.0000
  C   C36       1.0  0.44604  0.76296  0.25255  1.0000
  C   C37       1.0  0.44257  0.77645  0.17097  1.0000
  C   C38       1.0  0.43678  0.80332  0.17070  1.0000
  H   H18       1.0  0.44419  0.76683  0.11115  1.0000
  H   H19       1.0  0.43432  0.81265  0.11068  1.0000
  H   H20       1.0  0.45348  0.72568  0.19624  1.0000
  C   C39       1.0  0.57420  0.14139  0.33575  1.0000
  C   C40       1.0  0.56274  0.19532  0.33459  1.0000
  C   C41       1.0  0.56534  0.18173  0.25194  1.0000
  C   C42       1.0  0.57110  0.15470  0.25360  1.0000
  H   H21       1.0  0.57328  0.14467  0.19469  1.0000
  C   C43       1.0  0.55722  0.22245  0.33490  1.0000
  C   C44       1.0  0.54646  0.27651  0.33727  1.0000
  C   C45       1.0  0.54886  0.26321  0.25482  1.0000
  C   C46       1.0  0.55427  0.23611  0.25254  1.0000
  C   C47       1.0  0.55684  0.22242  0.17095  1.0000
  C   C48       1.0  0.56233  0.19549  0.17065  1.0000
  H   H22       1.0  0.55480  0.23195  0.11110  1.0000
  H   H23       1.0  0.56418  0.18603  0.11059  1.0000
  H   H24       1.0  0.54666  0.27335  0.19613  1.0000
  C   C49       1.0  0.85954  0.57570  0.33601  1.0000
  C   C50       1.0  0.80575  0.56394  0.33478  1.0000
  C   C51       1.0  0.81922  0.56702  0.25214  1.0000
  C   C52       1.0  0.84618  0.57294  0.25385  1.0000
  H   H25       1.0  0.85613  0.57544  0.19495  1.0000
  C   C53       1.0  0.77871  0.55817  0.33503  1.0000
  C   C54       1.0  0.72486  0.54673  0.33731  1.0000
  C   C55       1.0  0.73804  0.54971  0.25489  1.0000
  C   C56       1.0  0.76503  0.55544  0.25265  1.0000
  C   C57       1.0  0.77861  0.55853  0.17109  1.0000
  C   C58       1.0  0.80545  0.56427  0.17083  1.0000
  H   H26       1.0  0.76907  0.55665  0.11123  1.0000
  H   H27       1.0  0.81482  0.56645  0.11079  1.0000
  H   H28       1.0  0.72789  0.54769  0.19618  1.0000
  C   C59       1.0  0.14181  0.42771  0.33549  1.0000
  C   C60       1.0  0.19574  0.43844  0.33446  1.0000
  C   C61       1.0  0.18216  0.43618  0.25174  1.0000
  C   C62       1.0  0.15511  0.43077  0.25334  1.0000
  H   H29       1.0  0.14507  0.42874  0.19441  1.0000
  C   C63       1.0  0.22288  0.44353  0.33492  1.0000
  C   C64       1.0  0.27694  0.45342  0.33778  1.0000
  C   C65       1.0  0.26370  0.45141  0.25517  1.0000
  C   C66       1.0  0.23658  0.44641  0.25265  1.0000
  C   C67       1.0  0.22290  0.44420  0.17097  1.0000
  C   C68       1.0  0.19594  0.43911  0.17051  1.0000
  H   H30       1.0  0.23246  0.44619  0.11119  1.0000
  H   H31       1.0  0.18648  0.43749  0.11042  1.0000
  H   H32       1.0  0.27388  0.45360  0.19660  1.0000
  C   C69       1.0  0.14566  0.03300  0.25877  1.0000
  N   N9        1.0  0.13191  0.05562  0.26291  1.0000
  C   C70       1.0  0.08514  0.12220  0.25954  1.0000
  H   H33       1.0  0.14991  0.02528  0.19737  1.0000
  N   N10       1.0  0.10107  0.10107  0.26330  1.0000
  H   H34       1.0  0.07961  0.12916  0.19828  1.0000
  C   C71       1.0  0.85632  0.97067  0.25989  1.0000
  N   N11       1.0  0.87018  0.94812  0.26381  1.0000
  C   C72       1.0  0.91682  0.88136  0.25982  1.0000
  H   H35       1.0  0.85158  0.97815  0.19855  1.0000
  N   N12       1.0  0.90104  0.90260  0.26378  1.0000
  H   H36       1.0  0.92196  0.87414  0.19849  1.0000
  C   C73       1.0  0.96902  0.14614  0.25942  1.0000
  N   N13       1.0  0.94602  0.13298  0.26338  1.0000
  C   C74       1.0  0.87849  0.08735  0.25950  1.0000
  H   H37       1.0  0.97692  0.15017  0.19809  1.0000
  N   N14       1.0  0.89987  0.10303  0.26344  1.0000
  H   H38       1.0  0.87169  0.08164  0.19818  1.0000
  C   C75       1.0  0.03293  0.85701  0.25967  1.0000
  N   N15       1.0  0.05584  0.87029  0.26350  1.0000
  C   C76       1.0  0.12274  0.91661  0.25892  1.0000
  H   H39       1.0  0.02498  0.85301  0.19838  1.0000
  N   N16       1.0  0.10158  0.90066  0.26311  1.0000
  H   H40       1.0  0.12945  0.92236  0.19751  1.0000
  C   C77       1.0  0.34948  0.51654  0.33737  1.0000
  C   C78       1.0  0.37674  0.56434  0.33433  1.0000
  C   C79       1.0  0.37023  0.55192  0.25205  1.0000
  C   C80       1.0  0.35655  0.52790  0.25466  1.0000
  H   H41       1.0  0.35272  0.51807  0.19630  1.0000
  C   C81       1.0  0.39193  0.58745  0.33412  1.0000
  C   C82       1.0  0.42503  0.63142  0.33638  1.0000
  C   C83       1.0  0.41737  0.62030  0.25389  1.0000
  C   C84       1.0  0.40071  0.59826  0.25165  1.0000
  C   C85       1.0  0.39363  0.58612  0.17026  1.0000
  C   C86       1.0  0.37850  0.56314  0.17047  1.0000
  H   H42       1.0  0.39997  0.59352  0.11041  1.0000
  H   H43       1.0  0.37417  0.55432  0.11074  1.0000
  H   H44       1.0  0.42485  0.62763  0.19537  1.0000
  C   C87       1.0  0.65255  0.48290  0.33648  1.0000
  C   C88       1.0  0.62449  0.43544  0.33400  1.0000
  C   C89       1.0  0.63078  0.44796  0.25169  1.0000
  C   C90       1.0  0.64479  0.47179  0.25405  1.0000
  H   H45       1.0  0.64845  0.48168  0.19566  1.0000
  C   C91       1.0  0.60907  0.41244  0.33401  1.0000
  C   C92       1.0  0.57594  0.36840  0.33649  1.0000
  C   C93       1.0  0.58322  0.37981  0.25405  1.0000
  C   C94       1.0  0.59988  0.40187  0.25170  1.0000
  C   C95       1.0  0.60667  0.41416  0.17030  1.0000
  C   C96       1.0  0.62199  0.43701  0.17030  1.0000
  H   H46       1.0  0.60002  0.40694  0.11058  1.0000
  H   H47       1.0  0.62613  0.44591  0.11057  1.0000
  H   H48       1.0  0.57553  0.37262  0.19565  1.0000
  C   C97       1.0  0.51803  0.65022  0.33651  1.0000
  C   C98       1.0  0.56570  0.62305  0.33383  1.0000
  C   C99       1.0  0.55304  0.62897  0.25158  1.0000
  C   C100      1.0  0.52910  0.64256  0.25403  1.0000
  H   H49       1.0  0.51916  0.64602  0.19572  1.0000
  C   C101      1.0  0.58889  0.60814  0.33375  1.0000
  C   C102      1.0  0.63332  0.57590  0.33618  1.0000
  C   C103      1.0  0.62174  0.58285  0.25379  1.0000
  C   C104      1.0  0.59949  0.59908  0.25144  1.0000
  C   C105      1.0  0.58704  0.60548  0.17010  1.0000
  C   C106      1.0  0.56400  0.62031  0.17017  1.0000
  H   H50       1.0  0.59430  0.59892  0.11038  1.0000
  H   H51       1.0  0.55502  0.62422  0.11050  1.0000
  H   H52       1.0  0.62893  0.57517  0.19543  1.0000
  C   C107      1.0  0.48309  0.34868  0.33661  1.0000
  C   C108      1.0  0.43535  0.37570  0.33451  1.0000
  C   C109      1.0  0.44768  0.36937  0.25203  1.0000
  C   C110      1.0  0.47167  0.35585  0.25418  1.0000
  H   H53       1.0  0.48139  0.35213  0.19563  1.0000
  C   C111      1.0  0.41223  0.39071  0.33473  1.0000
  C   C112      1.0  0.36817  0.42338  0.33768  1.0000
  C   C113      1.0  0.37924  0.41588  0.25503  1.0000
  C   C114      1.0  0.40134  0.39946  0.25246  1.0000
  C   C115      1.0  0.41341  0.39257  0.17089  1.0000
  C   C116      1.0  0.43638  0.37764  0.17067  1.0000
  H   H54       1.0  0.40596  0.39892  0.11118  1.0000
  H   H55       1.0  0.44515  0.37347  0.11081  1.0000
  H   H56       1.0  0.37188  0.42337  0.19664  1.0000
  C   C117      1.0  0.08104  0.38690  0.33950  1.0000
  C   C118      1.0  0.10762  0.39422  0.33899  1.0000
  C   C119      1.0  0.11504  0.42085  0.33733  1.0000
  C   C120      1.0  0.09551  0.44030  0.33609  1.0000
  C   C121      1.0  0.06879  0.43336  0.33740  1.0000
  C   C122      1.0  0.06174  0.40659  0.33897  1.0000
  H   H57       1.0  0.10079  0.45965  0.33439  1.0000
  H   H58       1.0  0.04242  0.40139  0.33942  1.0000
  H   H59       1.0  0.12171  0.38003  0.33946  1.0000
  C   C123      1.0  0.92034  0.61662  0.33956  1.0000
  C   C124      1.0  0.89375  0.60928  0.33910  1.0000
  C   C125      1.0  0.88632  0.58264  0.33798  1.0000
  C   C126      1.0  0.90589  0.56321  0.33708  1.0000
  C   C127      1.0  0.93261  0.57017  0.33796  1.0000
  C   C128      1.0  0.93964  0.59694  0.33914  1.0000
  H   H60       1.0  0.90064  0.54386  0.33557  1.0000
  H   H61       1.0  0.95896  0.60215  0.33940  1.0000
  H   H62       1.0  0.87966  0.62346  0.33941  1.0000
  C   C129      1.0  0.61481  0.08052  0.33940  1.0000
  C   C130      1.0  0.60757  0.10718  0.33899  1.0000
  C   C131      1.0  0.58103  0.11455  0.33764  1.0000
  C   C132      1.0  0.56160  0.09487  0.33650  1.0000
  C   C133      1.0  0.56844  0.06809  0.33756  1.0000
  C   C134      1.0  0.59511  0.06111  0.33894  1.0000
  H   H63       1.0  0.54232  0.10009  0.33492  1.0000
  H   H64       1.0  0.60023  0.04175  0.33926  1.0000
  H   H65       1.0  0.62176  0.12135  0.33937  1.0000
  C   C135      1.0  0.38554  0.91848  0.33979  1.0000
  C   C136      1.0  0.39270  0.89182  0.33942  1.0000
  C   C137      1.0  0.41922  0.88442  0.33809  1.0000
  C   C138      1.0  0.43870  0.90405  0.33713  1.0000
  C   C139      1.0  0.43190  0.93084  0.33801  1.0000
  C   C140      1.0  0.40526  0.93786  0.33916  1.0000
  H   H66       1.0  0.45797  0.89880  0.33555  1.0000
  H   H67       1.0  0.40017  0.95724  0.33941  1.0000
  H   H68       1.0  0.37848  0.87767  0.33977  1.0000
  C   C141      1.0  0.05525  0.15219  0.33611  1.0000
  C   C142      1.0  0.02902  0.14374  0.33626  1.0000
  C   C143      1.0  0.00839  0.16195  0.33587  1.0000
  C   C144      1.0  0.01419  0.18897  0.33579  1.0000
  C   C145      1.0  0.04037  0.19779  0.33571  1.0000
  C   C146      1.0  0.06081  0.17927  0.33611  1.0000
  H   H69       1.0  0.99928  0.20227  0.33681  1.0000
  H   H70       1.0  0.07982  0.18550  0.33727  1.0000
  H   H71       1.0  0.02490  0.12409  0.33740  1.0000
  C   C147      1.0  0.94687  0.85135  0.33588  1.0000
  C   C148      1.0  0.97316  0.85960  0.33650  1.0000
  C   C149      1.0  0.99364  0.84123  0.33633  1.0000
  C   C150      1.0  0.98767  0.81425  0.33618  1.0000
  C   C151      1.0  0.96143  0.80563  0.33553  1.0000
  C   C152      1.0  0.94112  0.82431  0.33553  1.0000
  H   H72       1.0  0.00249  0.80086  0.33731  1.0000
  H   H73       1.0  0.92207  0.81821  0.33646  1.0000
  H   H74       1.0  0.97744  0.87921  0.33775  1.0000
  C   C153      1.0  0.84859  0.05718  0.33590  1.0000
  C   C154      1.0  0.85758  0.03112  0.33616  1.0000
  C   C155      1.0  0.83991  0.00991  0.33589  1.0000
  C   C156      1.0  0.81284  0.01496  0.33577  1.0000
  C   C157      1.0  0.80346  0.04097  0.33553  1.0000
  C   C158      1.0  0.82149  0.06199  0.33583  1.0000
  H   H75       1.0  0.79993  0.99962  0.33688  1.0000
  H   H76       1.0  0.81487  0.08088  0.33694  1.0000
  H   H77       1.0  0.87726  0.02754  0.33733  1.0000
  C   C159      1.0  0.15276  0.94666  0.33512  1.0000
  C   C160      1.0  0.14408  0.97283  0.33505  1.0000
  C   C161      1.0  0.16204  0.99380  0.33479  1.0000
  C   C162      1.0  0.18904  0.98841  0.33488  1.0000
  C   C163      1.0  0.19805  0.96227  0.33493  1.0000
  C   C164      1.0  0.17978  0.94149  0.33541  1.0000
  H   H78       1.0  0.20216  0.00357  0.33601  1.0000
  H   H79       1.0  0.18615  0.92251  0.33672  1.0000
  H   H80       1.0  0.12445  0.97665  0.33612  1.0000
  C   C165      1.0  0.44524  0.65026  0.33926  1.0000
  C   C166      1.0  0.47136  0.64167  0.33923  1.0000
  C   C167      1.0  0.49220  0.65976  0.33980  1.0000
  C   C168      1.0  0.48670  0.68682  0.34003  1.0000
  C   C169      1.0  0.46061  0.69576  0.33996  1.0000
  C   C170      1.0  0.43997  0.67735  0.33932  1.0000
  H   H81       1.0  0.50176  0.70005  0.33914  1.0000
  H   H82       1.0  0.42102  0.68367  0.33816  1.0000
  H   H83       1.0  0.47526  0.62199  0.33806  1.0000
  C   C171      1.0  0.55590  0.34932  0.33953  1.0000
  C   C172      1.0  0.52970  0.35766  0.33918  1.0000
  C   C173      1.0  0.50901  0.33937  0.33936  1.0000
  C   C174      1.0  0.51474  0.31237  0.33940  1.0000
  C   C175      1.0  0.54090  0.30363  0.33978  1.0000
  C   C176      1.0  0.56139  0.32225  0.33967  1.0000
  H   H84       1.0  0.49979  0.29902  0.33835  1.0000
  H   H85       1.0  0.58038  0.31609  0.33868  1.0000
  H   H86       1.0  0.52561  0.37729  0.33811  1.0000
  C   C177      1.0  0.65231  0.55592  0.33939  1.0000
  C   C178      1.0  0.64391  0.52961  0.33923  1.0000
  C   C179      1.0  0.66204  0.50890  0.33956  1.0000
  C   C180      1.0  0.68899  0.51473  0.33968  1.0000
  C   C181      1.0  0.69780  0.54100  0.33980  1.0000
  C   C182      1.0  0.67931  0.56150  0.33946  1.0000
  H   H87       1.0  0.70224  0.49976  0.33866  1.0000
  H   H88       1.0  0.68551  0.58057  0.33832  1.0000
  H   H89       1.0  0.62432  0.52547  0.33808  1.0000
  C   C183      1.0  0.34936  0.44353  0.34080  1.0000
  C   C184      1.0  0.35797  0.46978  0.34066  1.0000
  C   C185      1.0  0.33997  0.49059  0.34059  1.0000
  C   C186      1.0  0.31299  0.48500  0.34028  1.0000
  C   C187      1.0  0.30402  0.45881  0.34058  1.0000
  C   C188      1.0  0.32232  0.43815  0.34055  1.0000
  H   H90       1.0  0.29986  0.50006  0.33902  1.0000
  H   H91       1.0  0.31596  0.41913  0.33942  1.0000
  H   H92       1.0  0.37759  0.47379  0.33964  1.0000
  C   C189      1.0  0.03864  0.46316  0.41518  1.0000
  N   N17       1.0  0.02002  0.48199  0.41178  1.0000
  C   C190      1.0  0.96237  0.53990  0.41550  1.0000
  H   H93       1.0  0.04473  0.45658  0.47630  1.0000
  N   N18       1.0  0.98110  0.52118  0.41194  1.0000
  H   H94       1.0  0.95588  0.54605  0.47667  1.0000
  C   C191      1.0  0.53851  0.03786  0.41529  1.0000
  N   N19       1.0  0.51977  0.01904  0.41185  1.0000
  C   C192      1.0  0.46200  0.96091  0.41557  1.0000
  H   H95       1.0  0.54495  0.04414  0.47642  1.0000
  N   N20       1.0  0.48070  0.97977  0.41200  1.0000
  H   H96       1.0  0.45572  0.95451  0.47675  1.0000
  C   C193      1.0  0.07407  0.36007  0.34127  1.0000
  C   C194      1.0  0.06270  0.30608  0.34199  1.0000
  C   C195      1.0  0.06588  0.31949  0.42477  1.0000
  C   C196      1.0  0.07163  0.34656  0.42332  1.0000
  H   H97       1.0  0.07425  0.35647  0.48228  1.0000
  C   C197      1.0  0.05712  0.27894  0.34143  1.0000
  C   C198      1.0  0.04605  0.22491  0.33847  1.0000
  C   C199      1.0  0.04911  0.23800  0.42108  1.0000
  C   C200      1.0  0.05467  0.26510  0.42365  1.0000
  C   C201      1.0  0.05782  0.27861  0.50537  1.0000
  C   C202      1.0  0.06340  0.30556  0.50593  1.0000
  H   H98       1.0  0.05613  0.26894  0.56512  1.0000
  H   H99       1.0  0.06565  0.31489  0.56606  1.0000
  H   H100      1.0  0.04725  0.22772  0.47965  1.0000
  C   C203      1.0  0.92737  0.64344  0.34118  1.0000
  C   C204      1.0  0.93911  0.69735  0.34185  1.0000
  C   C205      1.0  0.93655  0.68381  0.42465  1.0000
  C   C206      1.0  0.93063  0.65678  0.42322  1.0000
  H   H101      1.0  0.92845  0.64679  0.48222  1.0000
  C   C207      1.0  0.94473  0.72448  0.34127  1.0000
  C   C208      1.0  0.95564  0.77854  0.33829  1.0000
  C   C209      1.0  0.95336  0.76530  0.42092  1.0000
  C   C210      1.0  0.94785  0.73820  0.42349  1.0000
  C   C211      1.0  0.94536  0.72455  0.50523  1.0000
  C   C212      1.0  0.93974  0.69761  0.50580  1.0000
  H   H102      1.0  0.94752  0.73412  0.56498  1.0000
  H   H103      1.0  0.93793  0.68819  0.56595  1.0000
  H   H104      1.0  0.95571  0.77548  0.47948  1.0000
  C   C213      1.0  0.64153  0.07355  0.34103  1.0000
  C   C214      1.0  0.69528  0.06193  0.34165  1.0000
  C   C215      1.0  0.68183  0.06466  0.42444  1.0000
  C   C216      1.0  0.65489  0.07050  0.42304  1.0000
  H   H105      1.0  0.64497  0.07281  0.48205  1.0000
  C   C217      1.0  0.72233  0.05642  0.34110  1.0000
  C   C218      1.0  0.77629  0.04593  0.33825  1.0000
  C   C219      1.0  0.76309  0.04833  0.42082  1.0000
  C   C220      1.0  0.73604  0.05359  0.42333  1.0000
  C   C221      1.0  0.72247  0.05623  0.50505  1.0000
  C   C222      1.0  0.69562  0.06172  0.50560  1.0000
  H   H106      1.0  0.73203  0.05429  0.56481  1.0000
  H   H107      1.0  0.68625  0.06366  0.56575  1.0000
  H   H108      1.0  0.77328  0.04633  0.47942  1.0000
  C   C223      1.0  0.35887  0.92556  0.34147  1.0000
  C   C224      1.0  0.30546  0.93833  0.34200  1.0000
  C   C225      1.0  0.31860  0.93444  0.42482  1.0000
  C   C226      1.0  0.34539  0.92801  0.42346  1.0000
  H   H109      1.0  0.35514  0.92499  0.48244  1.0000
  C   C227      1.0  0.27860  0.94461  0.34130  1.0000
  C   C228      1.0  0.22508  0.95684  0.33796  1.0000
  C   C229      1.0  0.23790  0.95315  0.42065  1.0000
  C   C230      1.0  0.26476  0.94705  0.42341  1.0000
  C   C231      1.0  0.27800  0.94321  0.50519  1.0000
  C   C232      1.0  0.30468  0.93697  0.50589  1.0000
  H   H110      1.0  0.26833  0.94487  0.56485  1.0000
  H   H111      1.0  0.31383  0.93422  0.56604  1.0000
  H   H112      1.0  0.22758  0.95483  0.47911  1.0000
  C   C233      1.0  0.42964  0.84330  0.41584  1.0000
  N   N21       1.0  0.43532  0.81739  0.41247  1.0000
  C   C234      1.0  0.45258  0.73753  0.41694  1.0000
  H   H113      1.0  0.42788  0.85213  0.47695  1.0000
  N   N22       1.0  0.44702  0.76346  0.41303  1.0000
  H   H114      1.0  0.45476  0.72890  0.47821  1.0000
  C   C235      1.0  0.57140  0.15586  0.41565  1.0000
  N   N23       1.0  0.56587  0.18181  0.41238  1.0000
  C   C236      1.0  0.54956  0.26197  0.41686  1.0000
  H   H115      1.0  0.57367  0.14712  0.47672  1.0000
  N   N24       1.0  0.55474  0.23595  0.41299  1.0000
  H   H116      1.0  0.54795  0.27073  0.47813  1.0000
  C   C237      1.0  0.84517  0.57247  0.41589  1.0000
  N   N25       1.0  0.81929  0.56681  0.41258  1.0000
  C   C238      1.0  0.73941  0.54966  0.41690  1.0000
  H   H117      1.0  0.85393  0.57452  0.47698  1.0000
  N   N26       1.0  0.76532  0.55517  0.41309  1.0000
  H   H118      1.0  0.73073  0.54770  0.47816  1.0000
  C   C239      1.0  0.15628  0.43016  0.41544  1.0000
  N   N27       1.0  0.18224  0.43536  0.41224  1.0000
  C   C240      1.0  0.26237  0.45043  0.41727  1.0000
  H   H119      1.0  0.14755  0.42782  0.47646  1.0000
  N   N28       1.0  0.23633  0.44566  0.41317  1.0000
  H   H120      1.0  0.27111  0.45184  0.47861  1.0000
  C   C241      1.0  0.15235  0.01965  0.33816  1.0000
  C   C242      1.0  0.12411  0.06678  0.34113  1.0000
  C   C243      1.0  0.13054  0.05433  0.42335  1.0000
  C   C244      1.0  0.14467  0.03066  0.42075  1.0000
  H   H121      1.0  0.14843  0.02079  0.47904  1.0000
  C   C245      1.0  0.10859  0.08960  0.34133  1.0000
  C   C246      1.0  0.07526  0.13324  0.33916  1.0000
  C   C247      1.0  0.08267  0.12194  0.42155  1.0000
  C   C248      1.0  0.09944  0.10007  0.42375  1.0000
  C   C249      1.0  0.10637  0.08786  0.50506  1.0000
  C   C250      1.0  0.12180  0.06517  0.50487  1.0000
  H   H122      1.0  0.09977  0.09502  0.56487  1.0000
  H   H123      1.0  0.12607  0.05633  0.56453  1.0000
  H   H124      1.0  0.07502  0.12908  0.48001  1.0000
  C   C251      1.0  0.84995  0.98419  0.33928  1.0000
  C   C252      1.0  0.87850  0.93722  0.34183  1.0000
  C   C253      1.0  0.87250  0.94989  0.42404  1.0000
  C   C254      1.0  0.85825  0.97349  0.42163  1.0000
  H   H125      1.0  0.85471  0.98346  0.47989  1.0000
  C   C255      1.0  0.89401  0.91438  0.34182  1.0000
  C   C256      1.0  0.92704  0.87049  0.33922  1.0000
  C   C257      1.0  0.92019  0.88215  0.42161  1.0000
  C   C258      1.0  0.90358  0.90414  0.42402  1.0000
  C   C259      1.0  0.89713  0.91661  0.50532  1.0000
  C   C260      1.0  0.88172  0.93930  0.50534  1.0000
  H   H126      1.0  0.90404  0.90961  0.56495  1.0000
  H   H127      1.0  0.87777  0.94832  0.56498  1.0000
  H   H128      1.0  0.92810  0.87515  0.47986  1.0000
  C   C261      1.0  0.98244  0.15256  0.33895  1.0000
  C   C262      1.0  0.93452  0.12556  0.34154  1.0000
  C   C263      1.0  0.94702  0.13181  0.42388  1.0000
  C   C264      1.0  0.97108  0.14533  0.42148  1.0000
  H   H129      1.0  0.98093  0.14898  0.47991  1.0000
  C   C265      1.0  0.91132  0.11054  0.34156  1.0000
  C   C266      1.0  0.86716  0.07769  0.33904  1.0000
  C   C267      1.0  0.87839  0.08515  0.42155  1.0000
  C   C268      1.0  0.90051  0.10168  0.42392  1.0000
  C   C269      1.0  0.91275  0.10849  0.50535  1.0000
  C   C270      1.0  0.93581  0.12344  0.50533  1.0000
  H   H130      1.0  0.90536  0.10207  0.56512  1.0000
  H   H131      1.0  0.94467  0.12757  0.56509  1.0000
  H   H132      1.0  0.87113  0.07753  0.47996  1.0000
  C   C271      1.0  0.01964  0.85041  0.33929  1.0000
  C   C272      1.0  0.06736  0.87767  0.34162  1.0000
  C   C273      1.0  0.05503  0.87125  0.42408  1.0000
  C   C274      1.0  0.03104  0.85760  0.42180  1.0000
  H   H133      1.0  0.02127  0.85387  0.48029  1.0000
  C   C275      1.0  0.09038  0.89295  0.34143  1.0000
  C   C276      1.0  0.13407  0.92632  0.33834  1.0000
  C   C277      1.0  0.12312  0.91864  0.42105  1.0000
  C   C278      1.0  0.10119  0.90187  0.42369  1.0000
  C   C279      1.0  0.08918  0.89482  0.50527  1.0000
  C   C280      1.0  0.06628  0.87963  0.50546  1.0000
  H   H134      1.0  0.09657  0.90129  0.56498  1.0000
  H   H135      1.0  0.05751  0.87540  0.56530  1.0000
  H   H136      1.0  0.13043  0.92625  0.47940  1.0000
  C   C281      1.0  0.35615  0.52989  0.41684  1.0000
  N   N29       1.0  0.36944  0.55285  0.41264  1.0000
  C   C282      1.0  0.41545  0.62009  0.41602  1.0000
  H   H137      1.0  0.35221  0.52196  0.47823  1.0000
  N   N30       1.0  0.39964  0.59879  0.41222  1.0000
  H   H138      1.0  0.42122  0.62689  0.47729  1.0000
  C   C283      1.0  0.64597  0.46949  0.41597  1.0000
  N   N31       1.0  0.63234  0.44671  0.41208  1.0000
  C   C284      1.0  0.58581  0.37958  0.41599  1.0000
  H   H139      1.0  0.65029  0.47726  0.47730  1.0000
  N   N32       1.0  0.60165  0.40088  0.41208  1.0000
  H   H140      1.0  0.58035  0.37257  0.47731  1.0000
  C   C285      1.0  0.53157  0.64403  0.41595  1.0000
  N   N33       1.0  0.55445  0.63080  0.41195  1.0000
  C   C286      1.0  0.62211  0.58567  0.41567  1.0000
  H   H141      1.0  0.52386  0.64835  0.47731  1.0000
  N   N34       1.0  0.60061  0.60106  0.41180  1.0000
  H   H142      1.0  0.62917  0.58034  0.47699  1.0000
  C   C287      1.0  0.46984  0.35523  0.41627  1.0000
  N   N35       1.0  0.44691  0.36837  0.41255  1.0000
  C   C288      1.0  0.37962  0.41388  0.41713  1.0000
  H   H143      1.0  0.47778  0.35122  0.47752  1.0000
  N   N36       1.0  0.40094  0.39826  0.41299  1.0000
  H   H144      1.0  0.37287  0.41956  0.47851  1.0000
