data_image0
_chemical_formula_structural       C15H12C3HNO2C3HNO2C2NC2NC5NC3NC17H14C3HNO2C3HNO2C15H12C3HNO2C3HNO2C2NC2NC5NC3NC17H14C3HNO2C3HNO2C15H12C3HNO2C3HNO2C2NC2NC5NC3NC17H14C3HNO2C3HNO2C15H12C3HNO2C3HNO2C2NC2NC5NC3NC17H14C3HNO2C3HNO2
_chemical_formula_sum              "C224 H120 N32 O32"
_cell_length_a       42.9966
_cell_length_b       42.9966
_cell_length_c       14.9903
_cell_angle_alpha    90
_cell_angle_beta     90
_cell_angle_gamma    90

_space_group_name_H-M_alt    "P 1"
_space_group_IT_number       1

loop_
  _space_group_symop_operation_xyz
  'x, y, z'

loop_
  _atom_site_type_symbol
  _atom_site_label
  _atom_site_symmetry_multiplicity
  _atom_site_fract_x
  _atom_site_fract_y
  _atom_site_fract_z
  _atom_site_occupancy
  C   C1        1.0  0.43436  0.47161  0.33423  1.0000
  C   C2        1.0  0.03010  0.43353  0.33574  1.0000
  C   C3        1.0  0.50013  0.08229  0.33305  1.0000
  C   C4        1.0  0.47070  0.06708  0.33311  1.0000
  C   C5        1.0  0.41909  0.05913  0.32979  1.0000
  C   C6        1.0  0.44170  0.08173  0.33388  1.0000
  C   C7        1.0  0.33509  0.48554  0.26723  1.0000
  C   C8        1.0  0.36777  0.48685  0.26406  1.0000
  C   C9        1.0  0.50041  0.11574  0.33350  1.0000
  C   C10       1.0  0.48583  0.16566  0.26620  1.0000
  C   C11       1.0  0.48707  0.13299  0.26297  1.0000
  C   C12       1.0  0.13255  0.01382  0.26296  1.0000
  C   C13       1.0  0.16523  0.01522  0.26438  1.0000
  C   C14       1.0  0.01429  0.36806  0.26276  1.0000
  C   C15       1.0  0.01547  0.33538  0.26414  1.0000
  H   H1        1.0  0.02821  0.32473  0.21553  1.0000
  H   H2        1.0  0.02499  0.37962  0.21152  1.0000
  H   H3        1.0  0.43764  0.39665  0.33002  1.0000
  H   H4        1.0  0.12094  0.02426  0.21140  1.0000
  H   H5        1.0  0.17581  0.02787  0.21544  1.0000
  H   H6        1.0  0.06316  0.10392  0.32945  1.0000
  H   H7        1.0  0.39583  0.06382  0.32739  1.0000
  H   H8        1.0  0.43702  0.10500  0.33530  1.0000
  H   H9        1.0  0.47688  0.12177  0.21028  1.0000
  H   H10       1.0  0.47395  0.17668  0.21635  1.0000
  H   H11       1.0  0.37903  0.47661  0.21155  1.0000
  H   H12       1.0  0.32410  0.47352  0.21757  1.0000
  C   C16       1.0  0.00003  0.28408  0.32994  1.0000
  C   C17       1.0  0.99892  0.26605  0.25030  1.0000
  C   C18       1.0  0.00056  0.23319  0.25501  1.0000
  H   H13       1.0  0.00136  0.22136  0.19593  1.0000
  N   N1        1.0  0.99413  0.28036  0.16613  1.0000
  O   O1        1.0  0.96850  0.27263  0.13246  1.0000
  O   O2        1.0  0.01544  0.27411  0.11149  1.0000
  C   C19       1.0  0.21663  0.00010  0.33041  1.0000
  C   C20       1.0  0.23467  0.99887  0.25078  1.0000
  C   C21       1.0  0.26753  0.00038  0.25549  1.0000
  H   H14       1.0  0.27939  0.00109  0.19643  1.0000
  N   N2        1.0  0.22035  0.99410  0.16661  1.0000
  O   O3        1.0  0.22801  0.96844  0.13295  1.0000
  O   O4        1.0  0.22666  0.01539  0.11196  1.0000
  C   C22       1.0  0.44248  0.41988  0.33214  1.0000
  C   C23       1.0  0.41988  0.44252  0.33578  1.0000
  N   N3        1.0  0.46533  0.46529  0.33405  1.0000
  C   C24       1.0  0.47160  0.43430  0.33376  1.0000
  C   C25       1.0  0.50069  0.41830  0.33454  1.0000
  N   N4        1.0  0.03622  0.46443  0.33495  1.0000
  C   C26       1.0  0.06714  0.47048  0.33485  1.0000
  C   C27       1.0  0.08173  0.44145  0.33417  1.0000
  C   C28       1.0  0.05909  0.41888  0.33819  1.0000
  C   C29       1.0  0.08240  0.49988  0.33480  1.0000
  C   C30       1.0  0.06642  0.02897  0.33480  1.0000
  N   N5        1.0  0.03545  0.03529  0.33392  1.0000
  C   C31       1.0  0.02920  0.06626  0.33307  1.0000
  C   C32       1.0  0.05832  0.08069  0.33168  1.0000
  C   C33       1.0  0.08090  0.05807  0.33624  1.0000
  N   N6        1.0  0.46459  0.03618  0.33307  1.0000
  C   C34       1.0  0.43369  0.03012  0.33227  1.0000
  C   C35       1.0  0.41840  0.50073  0.33339  1.0000
  C   C36       1.0  0.38495  0.50054  0.33420  1.0000
  C   C37       1.0  0.36812  0.01439  0.40476  1.0000
  C   C38       1.0  0.33543  0.01558  0.40314  1.0000
  C   C39       1.0  0.31785  0.50016  0.33636  1.0000
  C   C40       1.0  0.01410  0.13251  0.40445  1.0000
  C   C41       1.0  0.01545  0.16519  0.40284  1.0000
  C   C42       1.0  0.50029  0.18285  0.33574  1.0000
  C   C43       1.0  0.11585  0.50011  0.33402  1.0000
  C   C44       1.0  0.18296  0.50006  0.33135  1.0000
  C   C45       1.0  0.16584  0.48553  0.40089  1.0000
  C   C46       1.0  0.13317  0.48673  0.40434  1.0000
  C   C47       1.0  0.50045  0.38485  0.33344  1.0000
  C   C48       1.0  0.48673  0.36761  0.40339  1.0000
  C   C49       1.0  0.48538  0.33493  0.39995  1.0000
  C   C50       1.0  0.50004  0.31774  0.33079  1.0000
  H   H15       1.0  0.47334  0.32391  0.44949  1.0000
  H   H16       1.0  0.47646  0.37883  0.45594  1.0000
  H   H17       1.0  0.39664  0.43773  0.33782  1.0000
  H   H18       1.0  0.48113  0.48106  0.33408  1.0000
  H   H19       1.0  0.01965  0.01952  0.33386  1.0000
  H   H20       1.0  0.06373  0.39561  0.34057  1.0000
  H   H21       1.0  0.10498  0.43672  0.33256  1.0000
  H   H22       1.0  0.12200  0.47655  0.45714  1.0000
  H   H23       1.0  0.17690  0.47364  0.45066  1.0000
  H   H24       1.0  0.10413  0.06286  0.33888  1.0000
  H   H25       1.0  0.02448  0.12094  0.45620  1.0000
  H   H26       1.0  0.02804  0.17582  0.45181  1.0000
  H   H27       1.0  0.32474  0.02830  0.45173  1.0000
  H   H28       1.0  0.37963  0.02507  0.45612  1.0000
  C   C51       1.0  0.00021  0.21652  0.33663  1.0000
  C   C52       1.0  0.99884  0.23455  0.41624  1.0000
  C   C53       1.0  0.00030  0.26741  0.41156  1.0000
  H   H29       1.0  0.00092  0.27926  0.47065  1.0000
  N   N7        1.0  0.99401  0.22022  0.50036  1.0000
  O   O5        1.0  0.96829  0.22781  0.53377  1.0000
  O   O6        1.0  0.01522  0.22657  0.55523  1.0000
  C   C54       1.0  0.28419  0.00009  0.33713  1.0000
  C   C55       1.0  0.26616  0.99887  0.41674  1.0000
  C   C56       1.0  0.23331  0.00043  0.41203  1.0000
  H   H30       1.0  0.22147  0.00115  0.47113  1.0000
  N   N8        1.0  0.28048  0.99403  0.50088  1.0000
  O   O7        1.0  0.27281  0.96834  0.53433  1.0000
  O   O8        1.0  0.27417  0.01527  0.55569  1.0000
  C   C57       1.0  0.43436  0.97162  0.33423  1.0000
  C   C58       1.0  0.03010  0.93353  0.33574  1.0000
  C   C59       1.0  0.50013  0.58229  0.33305  1.0000
  C   C60       1.0  0.47070  0.56708  0.33311  1.0000
  C   C61       1.0  0.41909  0.55913  0.32979  1.0000
  C   C62       1.0  0.44170  0.58173  0.33388  1.0000
  C   C63       1.0  0.33509  0.98553  0.26723  1.0000
  C   C64       1.0  0.36777  0.98685  0.26406  1.0000
  C   C65       1.0  0.50041  0.61574  0.33350  1.0000
  C   C66       1.0  0.48583  0.66566  0.26620  1.0000
  C   C67       1.0  0.48707  0.63299  0.26297  1.0000
  C   C68       1.0  0.13255  0.51382  0.26296  1.0000
  C   C69       1.0  0.16523  0.51522  0.26438  1.0000
  C   C70       1.0  0.01429  0.86806  0.26276  1.0000
  C   C71       1.0  0.01547  0.83538  0.26414  1.0000
  H   H31       1.0  0.02821  0.82473  0.21553  1.0000
  H   H32       1.0  0.02499  0.87962  0.21152  1.0000
  H   H33       1.0  0.43764  0.89665  0.33002  1.0000
  H   H34       1.0  0.12094  0.52426  0.21140  1.0000
  H   H35       1.0  0.17581  0.52787  0.21544  1.0000
  H   H36       1.0  0.06316  0.60392  0.32945  1.0000
  H   H37       1.0  0.39583  0.56382  0.32739  1.0000
  H   H38       1.0  0.43702  0.60499  0.33530  1.0000
  H   H39       1.0  0.47688  0.62177  0.21028  1.0000
  H   H40       1.0  0.47395  0.67668  0.21635  1.0000
  H   H41       1.0  0.37903  0.97661  0.21155  1.0000
  H   H42       1.0  0.32410  0.97352  0.21757  1.0000
  C   C72       1.0  0.00003  0.78408  0.32994  1.0000
  C   C73       1.0  0.99892  0.76605  0.25030  1.0000
  C   C74       1.0  0.00056  0.73319  0.25501  1.0000
  H   H43       1.0  0.00136  0.72136  0.19593  1.0000
  N   N9        1.0  0.99413  0.78036  0.16613  1.0000
  O   O9        1.0  0.96850  0.77263  0.13246  1.0000
  O   O10       1.0  0.01544  0.77411  0.11149  1.0000
  C   C75       1.0  0.21663  0.50010  0.33041  1.0000
  C   C76       1.0  0.23467  0.49887  0.25078  1.0000
  C   C77       1.0  0.26753  0.50038  0.25549  1.0000
  H   H44       1.0  0.27939  0.50108  0.19643  1.0000
  N   N10       1.0  0.22035  0.49410  0.16661  1.0000
  O   O11       1.0  0.22801  0.46844  0.13295  1.0000
  O   O12       1.0  0.22666  0.51539  0.11196  1.0000
  C   C78       1.0  0.44248  0.91988  0.33214  1.0000
  C   C79       1.0  0.41988  0.94252  0.33578  1.0000
  N   N11       1.0  0.46533  0.96529  0.33405  1.0000
  C   C80       1.0  0.47160  0.93431  0.33376  1.0000
  C   C81       1.0  0.50069  0.91830  0.33454  1.0000
  N   N12       1.0  0.03622  0.96443  0.33495  1.0000
  C   C82       1.0  0.06714  0.97048  0.33485  1.0000
  C   C83       1.0  0.08173  0.94145  0.33417  1.0000
  C   C84       1.0  0.05909  0.91888  0.33819  1.0000
  C   C85       1.0  0.08240  0.99988  0.33480  1.0000
  C   C86       1.0  0.06642  0.52897  0.33480  1.0000
  N   N13       1.0  0.03545  0.53529  0.33392  1.0000
  C   C87       1.0  0.02920  0.56626  0.33307  1.0000
  C   C88       1.0  0.05832  0.58069  0.33168  1.0000
  C   C89       1.0  0.08090  0.55807  0.33624  1.0000
  N   N14       1.0  0.46459  0.53618  0.33307  1.0000
  C   C90       1.0  0.43369  0.53011  0.33227  1.0000
  C   C91       1.0  0.41840  0.00073  0.33339  1.0000
  C   C92       1.0  0.38495  0.00054  0.33420  1.0000
  C   C93       1.0  0.36812  0.51439  0.40476  1.0000
  C   C94       1.0  0.33543  0.51558  0.40314  1.0000
  C   C95       1.0  0.31785  0.00016  0.33636  1.0000
  C   C96       1.0  0.01410  0.63251  0.40445  1.0000
  C   C97       1.0  0.01545  0.66519  0.40284  1.0000
  C   C98       1.0  0.50029  0.68285  0.33574  1.0000
  C   C99       1.0  0.11585  0.00011  0.33402  1.0000
  C   C100      1.0  0.18296  0.00006  0.33135  1.0000
  C   C101      1.0  0.16584  0.98553  0.40089  1.0000
  C   C102      1.0  0.13317  0.98673  0.40434  1.0000
  C   C103      1.0  0.50045  0.88484  0.33344  1.0000
  C   C104      1.0  0.48673  0.86761  0.40339  1.0000
  C   C105      1.0  0.48538  0.83493  0.39995  1.0000
  C   C106      1.0  0.50004  0.81774  0.33079  1.0000
  H   H45       1.0  0.47334  0.82391  0.44949  1.0000
  H   H46       1.0  0.47646  0.87883  0.45594  1.0000
  H   H47       1.0  0.39664  0.93773  0.33782  1.0000
  H   H48       1.0  0.48113  0.98106  0.33408  1.0000
  H   H49       1.0  0.01965  0.51952  0.33386  1.0000
  H   H50       1.0  0.06373  0.89561  0.34057  1.0000
  H   H51       1.0  0.10498  0.93672  0.33256  1.0000
  H   H52       1.0  0.12200  0.97654  0.45714  1.0000
  H   H53       1.0  0.17690  0.97364  0.45066  1.0000
  H   H54       1.0  0.10413  0.56286  0.33888  1.0000
  H   H55       1.0  0.02448  0.62094  0.45620  1.0000
  H   H56       1.0  0.02804  0.67582  0.45181  1.0000
  H   H57       1.0  0.32474  0.52830  0.45173  1.0000
  H   H58       1.0  0.37963  0.52507  0.45612  1.0000
  C   C107      1.0  0.00021  0.71652  0.33663  1.0000
  C   C108      1.0  0.99884  0.73455  0.41624  1.0000
  C   C109      1.0  0.00030  0.76741  0.41156  1.0000
  H   H59       1.0  0.00092  0.77926  0.47065  1.0000
  N   N15       1.0  0.99401  0.72022  0.50036  1.0000
  O   O13       1.0  0.96829  0.72781  0.53377  1.0000
  O   O14       1.0  0.01522  0.72657  0.55523  1.0000
  C   C110      1.0  0.28419  0.50009  0.33713  1.0000
  C   C111      1.0  0.26616  0.49887  0.41674  1.0000
  C   C112      1.0  0.23331  0.50043  0.41203  1.0000
  H   H60       1.0  0.22147  0.50115  0.47113  1.0000
  N   N16       1.0  0.28048  0.49402  0.50088  1.0000
  O   O15       1.0  0.27281  0.46834  0.53433  1.0000
  O   O16       1.0  0.27417  0.51526  0.55569  1.0000
  C   C113      1.0  0.93436  0.47161  0.33423  1.0000
  C   C114      1.0  0.53010  0.43353  0.33574  1.0000
  C   C115      1.0  0.00013  0.08229  0.33305  1.0000
  C   C116      1.0  0.97070  0.06708  0.33311  1.0000
  C   C117      1.0  0.91909  0.05913  0.32979  1.0000
  C   C118      1.0  0.94170  0.08173  0.33388  1.0000
  C   C119      1.0  0.83509  0.48554  0.26723  1.0000
  C   C120      1.0  0.86777  0.48685  0.26406  1.0000
  C   C121      1.0  0.00041  0.11574  0.33350  1.0000
  C   C122      1.0  0.98583  0.16566  0.26620  1.0000
  C   C123      1.0  0.98707  0.13299  0.26297  1.0000
  C   C124      1.0  0.63255  0.01382  0.26296  1.0000
  C   C125      1.0  0.66523  0.01522  0.26438  1.0000
  C   C126      1.0  0.51429  0.36806  0.26276  1.0000
  C   C127      1.0  0.51547  0.33538  0.26414  1.0000
  H   H61       1.0  0.52821  0.32473  0.21553  1.0000
  H   H62       1.0  0.52498  0.37962  0.21152  1.0000
  H   H63       1.0  0.93764  0.39665  0.33002  1.0000
  H   H64       1.0  0.62094  0.02426  0.21140  1.0000
  H   H65       1.0  0.67581  0.02787  0.21544  1.0000
  H   H66       1.0  0.56316  0.10392  0.32945  1.0000
  H   H67       1.0  0.89583  0.06382  0.32739  1.0000
  H   H68       1.0  0.93702  0.10500  0.33530  1.0000
  H   H69       1.0  0.97688  0.12177  0.21028  1.0000
  H   H70       1.0  0.97395  0.17668  0.21635  1.0000
  H   H71       1.0  0.87903  0.47661  0.21155  1.0000
  H   H72       1.0  0.82410  0.47352  0.21757  1.0000
  C   C128      1.0  0.50003  0.28408  0.32994  1.0000
  C   C129      1.0  0.49892  0.26605  0.25030  1.0000
  C   C130      1.0  0.50055  0.23319  0.25501  1.0000
  H   H73       1.0  0.50135  0.22136  0.19593  1.0000
  N   N17       1.0  0.49413  0.28036  0.16613  1.0000
  O   O17       1.0  0.46850  0.27263  0.13246  1.0000
  O   O18       1.0  0.51544  0.27411  0.11149  1.0000
  C   C131      1.0  0.71663  0.00010  0.33041  1.0000
  C   C132      1.0  0.73467  0.99887  0.25078  1.0000
  C   C133      1.0  0.76753  0.00038  0.25549  1.0000
  H   H74       1.0  0.77939  0.00109  0.19643  1.0000
  N   N18       1.0  0.72035  0.99410  0.16661  1.0000
  O   O19       1.0  0.72801  0.96844  0.13295  1.0000
  O   O20       1.0  0.72666  0.01539  0.11196  1.0000
  C   C134      1.0  0.94248  0.41988  0.33214  1.0000
  C   C135      1.0  0.91988  0.44252  0.33578  1.0000
  N   N19       1.0  0.96533  0.46529  0.33405  1.0000
  C   C136      1.0  0.97160  0.43430  0.33376  1.0000
  C   C137      1.0  0.00069  0.41830  0.33454  1.0000
  N   N20       1.0  0.53622  0.46443  0.33495  1.0000
  C   C138      1.0  0.56714  0.47048  0.33485  1.0000
  C   C139      1.0  0.58173  0.44145  0.33417  1.0000
  C   C140      1.0  0.55909  0.41888  0.33819  1.0000
  C   C141      1.0  0.58240  0.49988  0.33480  1.0000
  C   C142      1.0  0.56642  0.02897  0.33480  1.0000
  N   N21       1.0  0.53545  0.03529  0.33392  1.0000
  C   C143      1.0  0.52920  0.06626  0.33307  1.0000
  C   C144      1.0  0.55832  0.08069  0.33168  1.0000
  C   C145      1.0  0.58090  0.05807  0.33624  1.0000
  N   N22       1.0  0.96460  0.03618  0.33307  1.0000
  C   C146      1.0  0.93369  0.03012  0.33227  1.0000
  C   C147      1.0  0.91840  0.50073  0.33339  1.0000
  C   C148      1.0  0.88495  0.50054  0.33420  1.0000
  C   C149      1.0  0.86812  0.01439  0.40476  1.0000
  C   C150      1.0  0.83543  0.01558  0.40314  1.0000
  C   C151      1.0  0.81785  0.50016  0.33636  1.0000
  C   C152      1.0  0.51410  0.13251  0.40445  1.0000
  C   C153      1.0  0.51545  0.16519  0.40284  1.0000
  C   C154      1.0  0.00029  0.18285  0.33574  1.0000
  C   C155      1.0  0.61585  0.50011  0.33402  1.0000
  C   C156      1.0  0.68296  0.50006  0.33135  1.0000
  C   C157      1.0  0.66583  0.48553  0.40089  1.0000
  C   C158      1.0  0.63316  0.48673  0.40434  1.0000
  C   C159      1.0  0.00044  0.38485  0.33344  1.0000
  C   C160      1.0  0.98673  0.36761  0.40339  1.0000
  C   C161      1.0  0.98537  0.33493  0.39995  1.0000
  C   C162      1.0  0.00004  0.31774  0.33079  1.0000
  H   H75       1.0  0.97334  0.32391  0.44949  1.0000
  H   H76       1.0  0.97646  0.37883  0.45594  1.0000
  H   H77       1.0  0.89664  0.43773  0.33782  1.0000
  H   H78       1.0  0.98113  0.48106  0.33408  1.0000
  H   H79       1.0  0.51965  0.01952  0.33386  1.0000
  H   H80       1.0  0.56373  0.39561  0.34057  1.0000
  H   H81       1.0  0.60498  0.43672  0.33256  1.0000
  H   H82       1.0  0.62200  0.47655  0.45714  1.0000
  H   H83       1.0  0.67690  0.47364  0.45066  1.0000
  H   H84       1.0  0.60413  0.06286  0.33888  1.0000
  H   H85       1.0  0.52448  0.12094  0.45620  1.0000
  H   H86       1.0  0.52804  0.17582  0.45181  1.0000
  H   H87       1.0  0.82474  0.02830  0.45173  1.0000
  H   H88       1.0  0.87963  0.02507  0.45612  1.0000
  C   C163      1.0  0.50021  0.21652  0.33663  1.0000
  C   C164      1.0  0.49884  0.23455  0.41624  1.0000
  C   C165      1.0  0.50030  0.26741  0.41156  1.0000
  H   H89       1.0  0.50091  0.27926  0.47065  1.0000
  N   N23       1.0  0.49401  0.22022  0.50036  1.0000
  O   O21       1.0  0.46829  0.22781  0.53377  1.0000
  O   O22       1.0  0.51522  0.22657  0.55523  1.0000
  C   C166      1.0  0.78419  0.00009  0.33713  1.0000
  C   C167      1.0  0.76616  0.99887  0.41674  1.0000
  C   C168      1.0  0.73330  0.00043  0.41203  1.0000
  H   H90       1.0  0.72147  0.00115  0.47113  1.0000
  N   N24       1.0  0.78048  0.99403  0.50088  1.0000
  O   O23       1.0  0.77281  0.96834  0.53433  1.0000
  O   O24       1.0  0.77417  0.01527  0.55569  1.0000
  C   C169      1.0  0.93436  0.97162  0.33423  1.0000
  C   C170      1.0  0.53010  0.93353  0.33574  1.0000
  C   C171      1.0  0.00013  0.58229  0.33305  1.0000
  C   C172      1.0  0.97070  0.56708  0.33311  1.0000
  C   C173      1.0  0.91909  0.55913  0.32979  1.0000
  C   C174      1.0  0.94170  0.58173  0.33388  1.0000
  C   C175      1.0  0.83509  0.98553  0.26723  1.0000
  C   C176      1.0  0.86777  0.98685  0.26406  1.0000
  C   C177      1.0  0.00041  0.61574  0.33350  1.0000
  C   C178      1.0  0.98583  0.66566  0.26620  1.0000
  C   C179      1.0  0.98707  0.63299  0.26297  1.0000
  C   C180      1.0  0.63255  0.51382  0.26296  1.0000
  C   C181      1.0  0.66523  0.51522  0.26438  1.0000
  C   C182      1.0  0.51429  0.86806  0.26276  1.0000
  C   C183      1.0  0.51547  0.83538  0.26414  1.0000
  H   H91       1.0  0.52821  0.82473  0.21553  1.0000
  H   H92       1.0  0.52498  0.87962  0.21152  1.0000
  H   H93       1.0  0.93764  0.89665  0.33002  1.0000
  H   H94       1.0  0.62094  0.52426  0.21140  1.0000
  H   H95       1.0  0.67581  0.52787  0.21544  1.0000
  H   H96       1.0  0.56316  0.60392  0.32945  1.0000
  H   H97       1.0  0.89583  0.56382  0.32739  1.0000
  H   H98       1.0  0.93702  0.60499  0.33530  1.0000
  H   H99       1.0  0.97688  0.62177  0.21028  1.0000
  H   H100      1.0  0.97395  0.67668  0.21635  1.0000
  H   H101      1.0  0.87903  0.97661  0.21155  1.0000
  H   H102      1.0  0.82410  0.97352  0.21757  1.0000
  C   C184      1.0  0.50003  0.78408  0.32994  1.0000
  C   C185      1.0  0.49892  0.76605  0.25030  1.0000
  C   C186      1.0  0.50055  0.73319  0.25501  1.0000
  H   H103      1.0  0.50135  0.72136  0.19593  1.0000
  N   N25       1.0  0.49413  0.78036  0.16613  1.0000
  O   O25       1.0  0.46850  0.77263  0.13246  1.0000
  O   O26       1.0  0.51544  0.77411  0.11149  1.0000
  C   C187      1.0  0.71663  0.50010  0.33041  1.0000
  C   C188      1.0  0.73467  0.49887  0.25078  1.0000
  C   C189      1.0  0.76753  0.50038  0.25549  1.0000
  H   H104      1.0  0.77939  0.50108  0.19643  1.0000
  N   N26       1.0  0.72035  0.49410  0.16661  1.0000
  O   O27       1.0  0.72801  0.46844  0.13295  1.0000
  O   O28       1.0  0.72666  0.51539  0.11196  1.0000
  C   C190      1.0  0.94248  0.91988  0.33214  1.0000
  C   C191      1.0  0.91988  0.94252  0.33578  1.0000
  N   N27       1.0  0.96533  0.96529  0.33405  1.0000
  C   C192      1.0  0.97160  0.93431  0.33376  1.0000
  C   C193      1.0  0.00069  0.91830  0.33454  1.0000
  N   N28       1.0  0.53622  0.96443  0.33495  1.0000
  C   C194      1.0  0.56714  0.97048  0.33485  1.0000
  C   C195      1.0  0.58173  0.94145  0.33417  1.0000
  C   C196      1.0  0.55909  0.91888  0.33819  1.0000
  C   C197      1.0  0.58240  0.99988  0.33480  1.0000
  C   C198      1.0  0.56642  0.52897  0.33480  1.0000
  N   N29       1.0  0.53545  0.53529  0.33392  1.0000
  C   C199      1.0  0.52920  0.56626  0.33307  1.0000
  C   C200      1.0  0.55832  0.58069  0.33168  1.0000
  C   C201      1.0  0.58090  0.55807  0.33624  1.0000
  N   N30       1.0  0.96460  0.53618  0.33307  1.0000
  C   C202      1.0  0.93369  0.53011  0.33227  1.0000
  C   C203      1.0  0.91840  0.00073  0.33339  1.0000
  C   C204      1.0  0.88495  0.00054  0.33420  1.0000
  C   C205      1.0  0.86812  0.51439  0.40476  1.0000
  C   C206      1.0  0.83543  0.51558  0.40314  1.0000
  C   C207      1.0  0.81785  0.00016  0.33636  1.0000
  C   C208      1.0  0.51410  0.63251  0.40445  1.0000
  C   C209      1.0  0.51545  0.66519  0.40284  1.0000
  C   C210      1.0  0.00029  0.68285  0.33574  1.0000
  C   C211      1.0  0.61585  0.00011  0.33402  1.0000
  C   C212      1.0  0.68296  0.00006  0.33135  1.0000
  C   C213      1.0  0.66583  0.98553  0.40089  1.0000
  C   C214      1.0  0.63316  0.98673  0.40434  1.0000
  C   C215      1.0  0.00044  0.88484  0.33344  1.0000
  C   C216      1.0  0.98673  0.86761  0.40339  1.0000
  C   C217      1.0  0.98537  0.83493  0.39995  1.0000
  C   C218      1.0  0.00004  0.81774  0.33079  1.0000
  H   H105      1.0  0.97334  0.82391  0.44949  1.0000
  H   H106      1.0  0.97646  0.87883  0.45594  1.0000
  H   H107      1.0  0.89664  0.93773  0.33782  1.0000
  H   H108      1.0  0.98113  0.98106  0.33408  1.0000
  H   H109      1.0  0.51965  0.51952  0.33386  1.0000
  H   H110      1.0  0.56373  0.89561  0.34057  1.0000
  H   H111      1.0  0.60498  0.93672  0.33256  1.0000
  H   H112      1.0  0.62200  0.97654  0.45714  1.0000
  H   H113      1.0  0.67690  0.97364  0.45066  1.0000
  H   H114      1.0  0.60413  0.56286  0.33888  1.0000
  H   H115      1.0  0.52448  0.62094  0.45620  1.0000
  H   H116      1.0  0.52804  0.67582  0.45181  1.0000
  H   H117      1.0  0.82474  0.52830  0.45173  1.0000
  H   H118      1.0  0.87963  0.52507  0.45612  1.0000
  C   C219      1.0  0.50021  0.71652  0.33663  1.0000
  C   C220      1.0  0.49884  0.73455  0.41624  1.0000
  C   C221      1.0  0.50030  0.76741  0.41156  1.0000
  H   H119      1.0  0.50091  0.77926  0.47065  1.0000
  N   N31       1.0  0.49401  0.72022  0.50036  1.0000
  O   O29       1.0  0.46829  0.72781  0.53377  1.0000
  O   O30       1.0  0.51522  0.72657  0.55523  1.0000
  C   C222      1.0  0.78419  0.50009  0.33713  1.0000
  C   C223      1.0  0.76616  0.49887  0.41674  1.0000
  C   C224      1.0  0.73330  0.50043  0.41203  1.0000
  H   H120      1.0  0.72147  0.50115  0.47113  1.0000
  N   N32       1.0  0.78048  0.49402  0.50088  1.0000
  O   O31       1.0  0.77281  0.46834  0.53433  1.0000
  O   O32       1.0  0.77417  0.51526  0.55569  1.0000
