data_image0
_chemical_formula_structural       C16H16C6H6C6H6C3NC3NC5NC5NC36H26N4H4C18H9C3O3C18H9C3O3
_chemical_formula_sum              "C122 H76 N8 O6"
_cell_length_a       42.1846
_cell_length_b       32.7261
_cell_length_c       14.9978
_cell_angle_alpha    90.301
_cell_angle_beta     89.7664
_cell_angle_gamma    89.7707

_space_group_name_H-M_alt    "P 1"
_space_group_IT_number       1

loop_
  _space_group_symop_operation_xyz
  'x, y, z'

loop_
  _atom_site_type_symbol
  _atom_site_label
  _atom_site_symmetry_multiplicity
  _atom_site_fract_x
  _atom_site_fract_y
  _atom_site_fract_z
  _atom_site_occupancy
  C   C1        1.0  0.85429  0.12674  0.28348  1.0000
  C   C2        1.0  0.83102  0.15763  0.28451  1.0000
  C   C3        1.0  0.74841  0.23837  0.31071  1.0000
  C   C4        1.0  0.76990  0.20541  0.31397  1.0000
  C   C5        1.0  0.85283  0.88466  0.27305  1.0000
  C   C6        1.0  0.82884  0.85496  0.26996  1.0000
  C   C7        1.0  0.79555  0.77367  0.29357  1.0000
  C   C8        1.0  0.77311  0.74201  0.29368  1.0000
  C   C9        1.0  0.06553  0.84897  0.28299  1.0000
  C   C10       1.0  0.04246  0.88010  0.28229  1.0000
  C   C11       1.0  0.12608  0.80034  0.31277  1.0000
  C   C12       1.0  0.14743  0.76721  0.30949  1.0000
  C   C13       1.0  0.04399  0.12136  0.27259  1.0000
  C   C14       1.0  0.06816  0.15082  0.26939  1.0000
  C   C15       1.0  0.12451  0.26336  0.29212  1.0000
  C   C16       1.0  0.10190  0.23191  0.29200  1.0000
  H   H1        1.0  0.12075  0.28839  0.25295  1.0000
  H   H2        1.0  0.08191  0.23558  0.25441  1.0000
  H   H3        1.0  0.07568  0.16080  0.20834  1.0000
  H   H4        1.0  0.03443  0.11087  0.21420  1.0000
  H   H5        1.0  0.03567  0.89236  0.22264  1.0000
  H   H6        1.0  0.07453  0.83891  0.22330  1.0000
  H   H7        1.0  0.86267  0.89469  0.21466  1.0000
  H   H8        1.0  0.82170  0.84437  0.20897  1.0000
  H   H9        1.0  0.77723  0.71673  0.25490  1.0000
  H   H10       1.0  0.81576  0.76991  0.25636  1.0000
  H   H11       1.0  0.76519  0.17985  0.27679  1.0000
  H   H12       1.0  0.72932  0.23627  0.26920  1.0000
  H   H13       1.0  0.82232  0.16768  0.22488  1.0000
  H   H14       1.0  0.86153  0.11464  0.22365  1.0000
  H   H15       1.0  0.13121  0.82590  0.27653  1.0000
  H   H16       1.0  0.16686  0.76918  0.26879  1.0000
  C   C17       1.0  0.19914  0.62636  0.28490  1.0000
  C   C18       1.0  0.21507  0.58857  0.28191  1.0000
  C   C19       1.0  0.35619  0.51182  0.26929  1.0000
  C   C20       1.0  0.38947  0.50900  0.26874  1.0000
  C   C21       1.0  0.23732  0.39636  0.30710  1.0000
  C   C22       1.0  0.21638  0.36297  0.30999  1.0000
  H   H17       1.0  0.40174  0.52134  0.21644  1.0000
  H   H18       1.0  0.34515  0.52605  0.21725  1.0000
  H   H19       1.0  0.25568  0.39546  0.26229  1.0000
  H   H20       1.0  0.22027  0.33908  0.26701  1.0000
  H   H21       1.0  0.20651  0.56620  0.24069  1.0000
  H   H22       1.0  0.17962  0.63020  0.24545  1.0000
  C   C23       1.0  0.69679  0.37872  0.28438  1.0000
  C   C24       1.0  0.68108  0.41663  0.28105  1.0000
  C   C25       1.0  0.54051  0.49510  0.26813  1.0000
  C   C26       1.0  0.50724  0.49816  0.26785  1.0000
  C   C27       1.0  0.65999  0.60927  0.30609  1.0000
  C   C28       1.0  0.68108  0.64251  0.30917  1.0000
  H   H23       1.0  0.49501  0.48574  0.21553  1.0000
  H   H24       1.0  0.55159  0.48066  0.21586  1.0000
  H   H25       1.0  0.64175  0.61017  0.26138  1.0000
  H   H26       1.0  0.67736  0.66633  0.26653  1.0000
  H   H27       1.0  0.68997  0.43870  0.23993  1.0000
  H   H28       1.0  0.71650  0.37449  0.24532  1.0000
  C   C29       1.0  0.96707  0.13122  0.35855  1.0000
  C   C30       1.0  0.93435  0.13245  0.36019  1.0000
  C   C31       1.0  0.92320  0.09230  0.36179  1.0000
  N   N1        1.0  0.94948  0.06835  0.36129  1.0000
  C   C32       1.0  0.97666  0.09030  0.35928  1.0000
  C   C33       1.0  0.00870  0.07655  0.35843  1.0000
  C   C34       1.0  0.01838  0.03499  0.35981  1.0000
  N   N2        1.0  0.99975  0.00152  0.36067  1.0000
  C   C35       1.0  0.01698  0.96666  0.36178  1.0000
  C   C36       1.0  0.04876  0.97854  0.36191  1.0000
  C   C37       1.0  0.04962  0.02067  0.36030  1.0000
  C   C38       1.0  0.00563  0.92590  0.36229  1.0000
  C   C39       1.0  0.97311  0.91455  0.36119  1.0000
  N   N3        1.0  0.94683  0.93850  0.36114  1.0000
  C   C40       1.0  0.91965  0.91654  0.35922  1.0000
  C   C41       1.0  0.92925  0.87562  0.35813  1.0000
  C   C42       1.0  0.96195  0.87440  0.35939  1.0000
  C   C43       1.0  0.88762  0.93028  0.35875  1.0000
  C   C44       1.0  0.87793  0.97185  0.36040  1.0000
  N   N4        1.0  0.89656  0.00532  0.36131  1.0000
  C   C45       1.0  0.87932  0.04018  0.36259  1.0000
  C   C46       1.0  0.84755  0.02830  0.36274  1.0000
  C   C47       1.0  0.84669  0.98617  0.36099  1.0000
  C   C48       1.0  0.89068  0.08094  0.36311  1.0000
  C   C49       1.0  0.86757  0.11272  0.36399  1.0000
  C   C50       1.0  0.82050  0.17535  0.36580  1.0000
  C   C51       1.0  0.83399  0.16105  0.44619  1.0000
  C   C52       1.0  0.85713  0.12999  0.44545  1.0000
  C   C53       1.0  0.79771  0.20765  0.36624  1.0000
  C   C54       1.0  0.80313  0.24383  0.41579  1.0000
  C   C55       1.0  0.78182  0.27689  0.41168  1.0000
  C   C56       1.0  0.75400  0.27468  0.35963  1.0000
  C   C57       1.0  0.86330  0.90027  0.35569  1.0000
  C   C58       1.0  0.81452  0.84035  0.34913  1.0000
  C   C59       1.0  0.82499  0.85653  0.43163  1.0000
  C   C60       1.0  0.84913  0.88604  0.43501  1.0000
  C   C61       1.0  0.79095  0.80923  0.34620  1.0000
  C   C62       1.0  0.74536  0.74479  0.34654  1.0000
  C   C63       1.0  0.74007  0.78097  0.39633  1.0000
  C   C64       1.0  0.76271  0.81245  0.39715  1.0000
  C   C65       1.0  0.02872  0.89410  0.36285  1.0000
  C   C66       1.0  0.03848  0.87653  0.44403  1.0000
  C   C67       1.0  0.06140  0.84520  0.44442  1.0000
  C   C68       1.0  0.07534  0.83091  0.36399  1.0000
  C   C69       1.0  0.09789  0.79832  0.36405  1.0000
  C   C70       1.0  0.14132  0.73093  0.35731  1.0000
  C   C71       1.0  0.11308  0.72890  0.40819  1.0000
  C   C72       1.0  0.09190  0.76214  0.41240  1.0000
  C   C73       1.0  0.03303  0.10653  0.35531  1.0000
  C   C74       1.0  0.04688  0.12132  0.43461  1.0000
  C   C75       1.0  0.08216  0.16597  0.34854  1.0000
  C   C76       1.0  0.07118  0.15059  0.43113  1.0000
  C   C77       1.0  0.10597  0.19679  0.34546  1.0000
  C   C78       1.0  0.13391  0.19373  0.39708  1.0000
  C   C79       1.0  0.15675  0.22498  0.39618  1.0000
  C   C80       1.0  0.15193  0.26078  0.34570  1.0000
  H   H29       1.0  0.17647  0.22212  0.43519  1.0000
  H   H30       1.0  0.13797  0.16855  0.43562  1.0000
  H   H31       1.0  0.08026  0.16132  0.48990  1.0000
  H   H32       1.0  0.03928  0.11100  0.49534  1.0000
  H   H33       1.0  0.98124  0.15648  0.35725  1.0000
  H   H34       1.0  0.92117  0.15872  0.35985  1.0000
  H   H35       1.0  0.94890  0.03904  0.36252  1.0000
  H   H36       1.0  0.94741  0.96781  0.36265  1.0000
  H   H37       1.0  0.06991  0.03763  0.35989  1.0000
  H   H38       1.0  0.06833  0.96004  0.36262  1.0000
  H   H39       1.0  0.02894  0.88637  0.50326  1.0000
  H   H40       1.0  0.06811  0.83321  0.50438  1.0000
  H   H41       1.0  0.97513  0.84812  0.35868  1.0000
  H   H42       1.0  0.91508  0.85036  0.35677  1.0000
  H   H43       1.0  0.82798  0.04681  0.36341  1.0000
  H   H44       1.0  0.82640  0.96920  0.36047  1.0000
  H   H45       1.0  0.85639  0.89690  0.49569  1.0000
  H   H46       1.0  0.81567  0.84621  0.49042  1.0000
  H   H47       1.0  0.75826  0.83794  0.43507  1.0000
  H   H48       1.0  0.72008  0.78400  0.43471  1.0000
  H   H49       1.0  0.86630  0.12007  0.50465  1.0000
  H   H50       1.0  0.82677  0.17280  0.50633  1.0000
  H   H51       1.0  0.78694  0.30301  0.44649  1.0000
  H   H52       1.0  0.82337  0.24717  0.45247  1.0000
  H   H53       1.0  0.07137  0.75895  0.44826  1.0000
  H   H54       1.0  0.10759  0.70283  0.44221  1.0000
  N   N5        1.0  0.73518  0.30878  0.35137  1.0000
  N   N6        1.0  0.16016  0.69677  0.34941  1.0000
  N   N7        1.0  0.17377  0.29173  0.34787  1.0000
  N   N8        1.0  0.72359  0.71376  0.34856  1.0000
  H   H55       1.0  0.70129  0.72170  0.34903  1.0000
  H   H56       1.0  0.14922  0.67057  0.35159  1.0000
  H   H57       1.0  0.19606  0.28373  0.34891  1.0000
  H   H58       1.0  0.74609  0.33501  0.35421  1.0000
  C   C81       1.0  0.30460  0.49837  0.34092  1.0000
  C   C82       1.0  0.29004  0.53724  0.33476  1.0000
  C   C83       1.0  0.25672  0.54187  0.33756  1.0000
  C   C84       1.0  0.23806  0.50628  0.34604  1.0000
  C   C85       1.0  0.25172  0.46683  0.35250  1.0000
  C   C86       1.0  0.28515  0.46353  0.35001  1.0000
  C   C87       1.0  0.24214  0.58133  0.33504  1.0000
  C   C88       1.0  0.25333  0.61382  0.38891  1.0000
  C   C89       1.0  0.23750  0.65176  0.39145  1.0000
  C   C90       1.0  0.20969  0.65834  0.34108  1.0000
  C   C91       1.0  0.33820  0.49473  0.33951  1.0000
  C   C92       1.0  0.40572  0.48982  0.33950  1.0000
  C   C93       1.0  0.38776  0.47255  0.40955  1.0000
  C   C94       1.0  0.35445  0.47478  0.40928  1.0000
  C   C95       1.0  0.23201  0.43158  0.36036  1.0000
  C   C96       1.0  0.18935  0.36361  0.36622  1.0000
  C   C97       1.0  0.18448  0.39845  0.42091  1.0000
  C   C98       1.0  0.20550  0.43164  0.41847  1.0000
  H   H59       1.0  0.39882  0.45840  0.46170  1.0000
  H   H60       1.0  0.34217  0.46257  0.46172  1.0000
  H   H61       1.0  0.20096  0.45620  0.45915  1.0000
  H   H62       1.0  0.16537  0.40021  0.46305  1.0000
  H   H63       1.0  0.24575  0.67393  0.43367  1.0000
  H   H64       1.0  0.27243  0.60967  0.42977  1.0000
  H   H65       1.0  0.30398  0.56264  0.32872  1.0000
  H   H66       1.0  0.29555  0.43530  0.35509  1.0000
  H   H67       1.0  0.21389  0.50919  0.34815  1.0000
  C   C99       1.0  0.19250  0.69580  0.34768  1.0000
  C   C100      1.0  0.43867  0.48726  0.33960  1.0000
  C   C101      1.0  0.16643  0.33172  0.36415  1.0000
  O   O1        1.0  0.13597  0.34208  0.38303  1.0000
  O   O2        1.0  0.44984  0.45262  0.34036  1.0000
  O   O3        1.0  0.20901  0.73032  0.36523  1.0000
  C   C102      1.0  0.59199  0.50818  0.33977  1.0000
  C   C103      1.0  0.60628  0.46912  0.33358  1.0000
  C   C104      1.0  0.63955  0.46408  0.33640  1.0000
  C   C105      1.0  0.65845  0.49950  0.34488  1.0000
  C   C106      1.0  0.64506  0.53914  0.35131  1.0000
  C   C107      1.0  0.61165  0.54283  0.34889  1.0000
  C   C108      1.0  0.65384  0.42444  0.33393  1.0000
  C   C109      1.0  0.64222  0.39234  0.38773  1.0000
  C   C110      1.0  0.65779  0.35425  0.39051  1.0000
  C   C111      1.0  0.68581  0.34717  0.34058  1.0000
  C   C112      1.0  0.55841  0.51220  0.33846  1.0000
  C   C113      1.0  0.49092  0.51755  0.33904  1.0000
  C   C114      1.0  0.50881  0.53487  0.40916  1.0000
  C   C115      1.0  0.54212  0.53242  0.40860  1.0000
  C   C116      1.0  0.66498  0.57421  0.35915  1.0000
  C   C117      1.0  0.70791  0.64191  0.36552  1.0000
  C   C118      1.0  0.71251  0.60719  0.41982  1.0000
  C   C119      1.0  0.69137  0.57413  0.41713  1.0000
  H   H68       1.0  0.49771  0.54915  0.46163  1.0000
  H   H69       1.0  0.55435  0.54462  0.46115  1.0000
  H   H70       1.0  0.69568  0.54968  0.45765  1.0000
  H   H71       1.0  0.73148  0.60545  0.46198  1.0000
  H   H72       1.0  0.64929  0.33242  0.43285  1.0000
  H   H73       1.0  0.62300  0.39691  0.42847  1.0000
  H   H74       1.0  0.59216  0.44385  0.32752  1.0000
  H   H75       1.0  0.60143  0.57119  0.35403  1.0000
  H   H76       1.0  0.68259  0.49631  0.34697  1.0000
  C   C120      1.0  0.70288  0.30972  0.34781  1.0000
  C   C121      1.0  0.45798  0.52014  0.33962  1.0000
  C   C122      1.0  0.73087  0.67377  0.36407  1.0000
  O   O4        1.0  0.76124  0.66345  0.38320  1.0000
  O   O5        1.0  0.44682  0.55479  0.34092  1.0000
  O   O6        1.0  0.68619  0.27528  0.36433  1.0000
