data_image0
_chemical_formula_structural       C2H4C2H4C2H4CNCNCNC18H12CNCNCNC18H12C4NC2NHCHC4NC2NHCHC4NC2NHCH
_chemical_formula_sum              "C69 H42 N12"
_cell_length_a       29.5227
_cell_length_b       29.5228
_cell_length_c       14.9757
_cell_angle_alpha    90
_cell_angle_beta     90
_cell_angle_gamma    120

_space_group_name_H-M_alt    "P 1"
_space_group_IT_number       1

loop_
  _space_group_symop_operation_xyz
  'x, y, z'

loop_
  _atom_site_type_symbol
  _atom_site_label
  _atom_site_symmetry_multiplicity
  _atom_site_fract_x
  _atom_site_fract_y
  _atom_site_fract_z
  _atom_site_occupancy
  C   C1        1.0  0.53022  0.50231  0.26225  1.0000
  C   C2        1.0  0.50255  0.52964  0.26216  1.0000
  H   H1        1.0  0.50133  0.54759  0.20445  1.0000
  H   H2        1.0  0.54832  0.50122  0.20466  1.0000
  H   H3        1.0  0.45248  0.40340  0.01161  1.0000
  H   H4        1.0  0.51051  0.46230  0.03989  1.0000
  C   C3        1.0  0.49972  0.02831  0.26226  1.0000
  C   C4        1.0  0.47238  0.97331  0.26216  1.0000
  H   H5        1.0  0.45443  0.95413  0.20446  1.0000
  H   H6        1.0  0.50080  0.04750  0.20466  1.0000
  H   H7        1.0  0.59863  0.04948  0.01162  1.0000
  H   H8        1.0  0.53973  0.04860  0.03990  1.0000
  C   C5        1.0  0.97371  0.47183  0.26226  1.0000
  C   C6        1.0  0.02871  0.49948  0.26217  1.0000
  H   H9        1.0  0.04788  0.50070  0.20446  1.0000
  H   H10       1.0  0.95452  0.45370  0.20468  1.0000
  H   H11       1.0  0.95256  0.54956  0.01164  1.0000
  H   H12       1.0  0.95343  0.49153  0.03991  1.0000
  C   C7        1.0  0.36111  0.72145  0.33261  1.0000
  N   N1        1.0  0.38694  0.69409  0.33268  1.0000
  C   C8        1.0  0.36197  0.64092  0.33262  1.0000
  N   N2        1.0  0.30877  0.61509  0.33269  1.0000
  C   C9        1.0  0.28058  0.64006  0.33261  1.0000
  N   N3        1.0  0.30794  0.69326  0.33268  1.0000
  C   C10       1.0  0.39032  0.61348  0.33335  1.0000
  C   C11       1.0  0.44499  0.63973  0.31757  1.0000
  C   C12       1.0  0.47300  0.61271  0.31848  1.0000
  C   C13       1.0  0.44739  0.55854  0.33665  1.0000
  C   C14       1.0  0.39295  0.53201  0.35250  1.0000
  C   C15       1.0  0.36490  0.55898  0.35032  1.0000
  C   C16       1.0  0.38855  0.77725  0.33334  1.0000
  C   C17       1.0  0.44305  0.80632  0.35031  1.0000
  C   C18       1.0  0.47001  0.86134  0.35252  1.0000
  C   C19       1.0  0.44349  0.88926  0.33665  1.0000
  C   C20       1.0  0.38931  0.86069  0.31848  1.0000
  C   C21       1.0  0.36229  0.80565  0.31757  1.0000
  C   C22       1.0  0.22478  0.61170  0.33335  1.0000
  C   C23       1.0  0.19571  0.63713  0.35033  1.0000
  C   C24       1.0  0.14069  0.60908  0.35251  1.0000
  C   C25       1.0  0.11277  0.55463  0.33665  1.0000
  C   C26       1.0  0.14133  0.52903  0.31847  1.0000
  C   C27       1.0  0.19637  0.55704  0.31759  1.0000
  H   H13       1.0  0.50937  0.88090  0.36510  1.0000
  H   H14       1.0  0.46386  0.78779  0.36255  1.0000
  H   H15       1.0  0.36890  0.87976  0.30724  1.0000
  H   H16       1.0  0.32302  0.78660  0.30455  1.0000
  H   H17       1.0  0.21424  0.67648  0.36253  1.0000
  H   H18       1.0  0.12113  0.62888  0.36508  1.0000
  H   H19       1.0  0.21542  0.53682  0.30455  1.0000
  H   H20       1.0  0.12226  0.48954  0.30726  1.0000
  H   H21       1.0  0.32555  0.53816  0.36255  1.0000
  H   H22       1.0  0.37315  0.49265  0.36510  1.0000
  H   H23       1.0  0.51249  0.63313  0.30725  1.0000
  H   H24       1.0  0.46521  0.67901  0.30455  1.0000
  C   C28       1.0  0.64038  0.28018  0.33224  1.0000
  N   N4        1.0  0.61549  0.30845  0.33231  1.0000
  C   C29       1.0  0.64142  0.36164  0.33224  1.0000
  N   N5        1.0  0.69458  0.38653  0.33232  1.0000
  C   C30       1.0  0.72185  0.36061  0.33225  1.0000
  N   N6        1.0  0.69358  0.30745  0.33232  1.0000
  C   C31       1.0  0.61407  0.39009  0.33311  1.0000
  C   C32       1.0  0.55963  0.36477  0.35058  1.0000
  C   C33       1.0  0.53275  0.39290  0.35298  1.0000
  C   C34       1.0  0.55930  0.44732  0.33683  1.0000
  C   C35       1.0  0.61340  0.47281  0.31808  1.0000
  C   C36       1.0  0.64035  0.44472  0.31701  1.0000
  C   C37       1.0  0.61194  0.22438  0.33311  1.0000
  C   C38       1.0  0.55731  0.19603  0.31701  1.0000
  C   C39       1.0  0.52921  0.14099  0.31811  1.0000
  C   C40       1.0  0.55470  0.11238  0.33685  1.0000
  C   C41       1.0  0.60912  0.14025  0.35299  1.0000
  C   C42       1.0  0.63725  0.19526  0.35059  1.0000
  C   C43       1.0  0.77764  0.38796  0.33313  1.0000
  C   C44       1.0  0.80599  0.36168  0.31705  1.0000
  C   C45       1.0  0.86103  0.38863  0.31814  1.0000
  C   C46       1.0  0.88965  0.44273  0.33687  1.0000
  C   C47       1.0  0.86177  0.46928  0.35303  1.0000
  C   C48       1.0  0.80677  0.44240  0.35061  1.0000
  H   H25       1.0  0.48975  0.12196  0.30659  1.0000
  H   H26       1.0  0.53717  0.21513  0.30360  1.0000
  H   H27       1.0  0.62885  0.12066  0.36593  1.0000
  H   H28       1.0  0.67657  0.21375  0.36309  1.0000
  H   H29       1.0  0.78690  0.32245  0.30362  1.0000
  H   H30       1.0  0.88007  0.36820  0.30661  1.0000
  H   H31       1.0  0.78827  0.46322  0.36309  1.0000
  H   H32       1.0  0.88137  0.50860  0.36593  1.0000
  H   H33       1.0  0.67958  0.46485  0.30359  1.0000
  H   H34       1.0  0.63383  0.51227  0.30658  1.0000
  H   H35       1.0  0.49343  0.37318  0.36593  1.0000
  H   H36       1.0  0.53880  0.32545  0.36307  1.0000
  C   C49       1.0  0.47575  0.53129  0.33920  1.0000
  C   C50       1.0  0.47827  0.50568  0.41752  1.0000
  C   C51       1.0  0.50632  0.47810  0.41760  1.0000
  C   C52       1.0  0.53205  0.47569  0.33938  1.0000
  N   N7        1.0  0.50881  0.45570  0.49556  1.0000
  C   C53       1.0  0.48591  0.45778  0.57295  1.0000
  C   C54       1.0  0.45802  0.48498  0.57221  1.0000
  N   N8        1.0  0.45548  0.50780  0.49528  1.0000
  H   H37       1.0  0.44018  0.48816  0.62840  1.0000
  C   C55       1.0  0.49109  0.43286  0.65461  1.0000
  H   H38       1.0  0.51414  0.41390  0.64206  1.0000
  C   C56       1.0  0.47074  0.94486  0.33921  1.0000
  C   C57       1.0  0.49635  0.97299  0.41753  1.0000
  C   C58       1.0  0.52393  0.02863  0.41761  1.0000
  C   C59       1.0  0.52634  0.05677  0.33940  1.0000
  N   N9        1.0  0.54633  0.05352  0.49558  1.0000
  C   C60       1.0  0.54424  0.02853  0.57297  1.0000
  C   C61       1.0  0.51705  0.97344  0.57221  1.0000
  N   N10       1.0  0.49423  0.94808  0.49528  1.0000
  H   H39       1.0  0.51387  0.95242  0.62840  1.0000
  C   C62       1.0  0.56917  0.05863  0.65463  1.0000
  H   H40       1.0  0.58813  0.10064  0.64207  1.0000
  C   C63       1.0  0.05716  0.52628  0.33921  1.0000
  C   C64       1.0  0.02904  0.52377  0.41753  1.0000
  C   C65       1.0  0.97341  0.49572  0.41762  1.0000
  C   C66       1.0  0.94526  0.46998  0.33940  1.0000
  N   N11       1.0  0.94851  0.49322  0.49558  1.0000
  C   C67       1.0  0.97351  0.51612  0.57297  1.0000
  C   C68       1.0  0.02859  0.54402  0.57222  1.0000
  N   N12       1.0  0.05395  0.54656  0.49528  1.0000
  H   H41       1.0  0.04962  0.56185  0.62840  1.0000
  C   C69       1.0  0.94341  0.51094  0.65464  1.0000
  H   H42       1.0  0.90140  0.48789  0.64209  1.0000
