data_image0
_chemical_formula_structural       NC3H3CNCHCNCHCNCHNC3H3NC3H3NC3H3NC3H3CNCHCNCHNC3H3NC3H3CNCHCNCHNC3H3NC3H3CNCHCNCHNC3H3NC3H3CNCHCNCHCNCHNC3H3CNCNCNCNCNCNCNCNCNCNCNCNCNCNCNCNCNCNCNCNCNCNCNCNCNCNCNCNCNCNCNCNCNCNCNCNCNCNCNCNCNCNCNCNCNCNCNCNCNCHNC3H3NC3H3NC3H3CNCHCNCHCNCHCNCHNC3H3NC3H3CNCHCNCHNC3H3NC3H3CNCHCNCHNC3H3NC3H3CNCHCNCHNC3H3NC3H3NC3H3CNCH
_chemical_formula_sum              "N96 C168 H96"
_cell_length_a       53.9284
_cell_length_b       27.8042
_cell_length_c       14.8709
_cell_angle_alpha    90
_cell_angle_beta     90
_cell_angle_gamma    90

_space_group_name_H-M_alt    "P 1"
_space_group_IT_number       1

loop_
  _space_group_symop_operation_xyz
  'x, y, z'

loop_
  _atom_site_type_symbol
  _atom_site_label
  _atom_site_symmetry_multiplicity
  _atom_site_fract_x
  _atom_site_fract_y
  _atom_site_fract_z
  _atom_site_occupancy
  N   N1        1.0  0.51808  0.46500  0.34450  1.0000
  C   C1        1.0  0.53104  0.50696  0.34380  1.0000
  C   C2        1.0  0.51738  0.55036  0.35298  1.0000
  C   C3        1.0  0.55817  0.50369  0.33052  1.0000
  H   H1        1.0  0.56419  0.46640  0.32321  1.0000
  H   H2        1.0  0.56779  0.51904  0.38831  1.0000
  H   H3        1.0  0.56351  0.52309  0.26971  1.0000
  C   C4        1.0  0.01563  0.96049  0.33041  1.0000
  N   N2        1.0  0.01643  0.04573  0.32239  1.0000
  C   C5        1.0  0.02906  0.00355  0.32122  1.0000
  H   H4        1.0  0.04791  0.00381  0.31479  1.0000
  C   C6        1.0  0.37074  0.32815  0.35130  1.0000
  N   N3        1.0  0.40517  0.38192  0.33543  1.0000
  C   C7        1.0  0.38016  0.37464  0.33414  1.0000
  H   H5        1.0  0.36865  0.40249  0.31798  1.0000
  C   C8        1.0  0.63763  0.68764  0.34539  1.0000
  N   N4        1.0  0.60338  0.63305  0.33612  1.0000
  C   C9        1.0  0.62838  0.64043  0.33566  1.0000
  H   H6        1.0  0.64002  0.61188  0.32653  1.0000
  N   N5        1.0  0.12084  0.79396  0.31301  1.0000
  C   C10       1.0  0.09590  0.80045  0.30985  1.0000
  C   C11       1.0  0.08636  0.84710  0.33029  1.0000
  C   C12       1.0  0.08128  0.75771  0.28270  1.0000
  H   H7        1.0  0.09323  0.72794  0.26222  1.0000
  H   H8        1.0  0.06936  0.76668  0.22578  1.0000
  H   H9        1.0  0.06997  0.74521  0.33881  1.0000
  N   N6        1.0  0.88835  0.22242  0.32698  1.0000
  C   C13       1.0  0.91332  0.21594  0.32525  1.0000
  C   C14       1.0  0.92265  0.16833  0.33763  1.0000
  C   C15       1.0  0.92817  0.25987  0.30845  1.0000
  H   H10       1.0  0.91640  0.29106  0.29538  1.0000
  H   H11       1.0  0.94003  0.25462  0.24975  1.0000
  H   H12       1.0  0.93957  0.26813  0.36704  1.0000
  N   N7        1.0  0.49733  0.25281  0.27882  1.0000
  C   C16       1.0  0.50984  0.21100  0.26809  1.0000
  C   C17       1.0  0.53342  0.20655  0.31087  1.0000
  C   C18       1.0  0.49729  0.17380  0.21306  1.0000
  H   H13       1.0  0.48199  0.18910  0.17435  1.0000
  H   H14       1.0  0.48964  0.14574  0.25613  1.0000
  H   H15       1.0  0.51039  0.15792  0.16566  1.0000
  N   N8        1.0  0.50840  0.75670  0.27294  1.0000
  C   C19       1.0  0.49527  0.79779  0.26229  1.0000
  C   C20       1.0  0.47278  0.80272  0.31192  1.0000
  C   C21       1.0  0.50627  0.83434  0.20165  1.0000
  H   H16       1.0  0.52033  0.81843  0.15798  1.0000
  H   H17       1.0  0.51516  0.86270  0.24070  1.0000
  H   H18       1.0  0.49193  0.84998  0.15891  1.0000
  C   C22       1.0  0.00275  0.79143  0.35987  1.0000
  N   N9        1.0  0.96625  0.74582  0.32955  1.0000
  C   C23       1.0  0.97860  0.78837  0.32382  1.0000
  H   H19       1.0  0.97110  0.81595  0.28753  1.0000
  C   C24       1.0  0.00749  0.21894  0.35978  1.0000
  N   N10       1.0  0.04354  0.26430  0.32227  1.0000
  C   C25       1.0  0.03081  0.22212  0.31723  1.0000
  H   H20       1.0  0.03710  0.19538  0.27603  1.0000
  N   N11       1.0  0.32610  0.11609  0.31987  1.0000
  C   C26       1.0  0.33176  0.16353  0.31570  1.0000
  C   C27       1.0  0.31259  0.19719  0.33582  1.0000
  C   C28       1.0  0.35771  0.17448  0.28993  1.0000
  H   H21       1.0  0.36785  0.14210  0.27055  1.0000
  H   H22       1.0  0.36752  0.19066  0.34649  1.0000
  H   H23       1.0  0.35797  0.19901  0.23263  1.0000
  N   N12       1.0  0.68300  0.89909  0.31161  1.0000
  C   C29       1.0  0.67727  0.85168  0.30783  1.0000
  C   C30       1.0  0.69620  0.81801  0.33063  1.0000
  C   C31       1.0  0.65148  0.84076  0.27994  1.0000
  H   H24       1.0  0.64157  0.87308  0.25872  1.0000
  H   H25       1.0  0.64124  0.82513  0.33603  1.0000
  H   H26       1.0  0.65156  0.81577  0.22334  1.0000
  C   C32       1.0  0.20482  0.59567  0.34433  1.0000
  N   N13       1.0  0.21885  0.67743  0.32973  1.0000
  C   C33       1.0  0.22402  0.62909  0.32785  1.0000
  H   H27       1.0  0.24140  0.61766  0.31101  1.0000
  C   C34       1.0  0.80359  0.41943  0.35039  1.0000
  N   N14       1.0  0.78982  0.33764  0.33346  1.0000
  C   C35       1.0  0.78456  0.38594  0.33201  1.0000
  H   H28       1.0  0.76725  0.39731  0.31410  1.0000
  N   N15       1.0  0.25926  0.34981  0.31625  1.0000
  C   C36       1.0  0.23882  0.37837  0.31100  1.0000
  C   C37       1.0  0.24162  0.42889  0.32737  1.0000
  C   C38       1.0  0.21561  0.35282  0.28702  1.0000
  H   H29       1.0  0.21891  0.31483  0.27275  1.0000
  H   H30       1.0  0.20744  0.36887  0.22693  1.0000
  H   H31       1.0  0.20246  0.35473  0.34264  1.0000
  N   N16       1.0  0.74925  0.66522  0.31794  1.0000
  C   C39       1.0  0.76971  0.63664  0.31409  1.0000
  C   C40       1.0  0.76685  0.58622  0.33128  1.0000
  C   C41       1.0  0.79299  0.66203  0.29042  1.0000
  H   H32       1.0  0.78973  0.69992  0.27513  1.0000
  H   H33       1.0  0.80134  0.64557  0.23104  1.0000
  H   H34       1.0  0.80598  0.66050  0.34658  1.0000
  C   C42       1.0  0.22612  0.86487  0.34883  1.0000
  N   N17       1.0  0.24355  0.94412  0.33850  1.0000
  C   C43       1.0  0.22332  0.91488  0.33467  1.0000
  H   H35       1.0  0.20645  0.92960  0.32000  1.0000
  C   C44       1.0  0.78279  0.15027  0.34810  1.0000
  N   N18       1.0  0.76539  0.07108  0.33572  1.0000
  C   C45       1.0  0.78565  0.10032  0.33335  1.0000
  H   H36       1.0  0.80258  0.08568  0.31931  1.0000
  N   N19       1.0  0.11034  0.46230  0.29872  1.0000
  C   C46       1.0  0.13262  0.48448  0.29531  1.0000
  C   C47       1.0  0.15365  0.45717  0.32203  1.0000
  C   C48       1.0  0.13248  0.53498  0.26361  1.0000
  H   H37       1.0  0.11412  0.54584  0.24016  1.0000
  H   H38       1.0  0.14543  0.53926  0.20777  1.0000
  H   H39       1.0  0.13770  0.55898  0.31837  1.0000
  N   N20       1.0  0.89808  0.55142  0.30664  1.0000
  C   C49       1.0  0.87570  0.52977  0.30319  1.0000
  C   C50       1.0  0.85489  0.55757  0.33027  1.0000
  C   C51       1.0  0.87560  0.47930  0.27126  1.0000
  H   H40       1.0  0.89386  0.46821  0.24719  1.0000
  H   H41       1.0  0.86252  0.47523  0.21579  1.0000
  H   H42       1.0  0.87044  0.45530  0.32611  1.0000
  C   C52       1.0  0.40272  0.91612  0.36017  1.0000
  N   N21       1.0  0.35905  0.91032  0.33827  1.0000
  C   C53       1.0  0.38172  0.88871  0.33688  1.0000
  H   H43       1.0  0.38331  0.85390  0.31580  1.0000
  C   C54       1.0  0.60576  0.09733  0.35172  1.0000
  N   N22       1.0  0.64943  0.10433  0.33015  1.0000
  C   C55       1.0  0.62658  0.12535  0.32875  1.0000
  H   H44       1.0  0.62473  0.16017  0.30801  1.0000
  C   C56       1.0  0.02191  0.46770  0.32574  1.0000
  N   N23       1.0  0.00998  0.54963  0.31847  1.0000
  C   C57       1.0  0.02826  0.51643  0.31445  1.0000
  H   H45       1.0  0.04617  0.52739  0.30558  1.0000
  N   N24       1.0  0.51103  0.95722  0.34446  1.0000
  C   C58       1.0  0.52965  0.98991  0.34156  1.0000
  C   C59       1.0  0.52306  0.03909  0.35257  1.0000
  C   C60       1.0  0.55479  0.97111  0.32272  1.0000
  H   H46       1.0  0.55461  0.93221  0.31248  1.0000
  H   H47       1.0  0.56703  0.97877  0.37929  1.0000
  H   H48       1.0  0.56220  0.98776  0.26189  1.0000
  C   C61       1.0  0.44813  0.35908  0.34966  1.0000
  N   N25       1.0  0.45729  0.40493  0.35446  1.0000
  C   C62       1.0  0.48226  0.41410  0.35108  1.0000
  N   N26       1.0  0.49804  0.37631  0.34227  1.0000
  C   C63       1.0  0.48977  0.33068  0.33528  1.0000
  N   N27       1.0  0.46497  0.32331  0.33845  1.0000
  C   C64       1.0  0.56029  0.65555  0.34415  1.0000
  N   N28       1.0  0.55190  0.60927  0.35019  1.0000
  C   C65       1.0  0.52718  0.59791  0.34966  1.0000
  N   N29       1.0  0.51067  0.63472  0.34265  1.0000
  C   C66       1.0  0.51805  0.68091  0.33460  1.0000
  N   N30       1.0  0.54272  0.69008  0.33487  1.0000
  C   C67       1.0  0.06055  0.85902  0.33458  1.0000
  N   N31       1.0  0.05140  0.90488  0.32976  1.0000
  C   C68       1.0  0.02643  0.91405  0.33312  1.0000
  N   N32       1.0  0.01064  0.87626  0.34190  1.0000
  C   C69       1.0  0.01891  0.83063  0.34891  1.0000
  N   N33       1.0  0.04371  0.82326  0.34577  1.0000
  C   C70       1.0  0.94838  0.15547  0.33976  1.0000
  N   N34       1.0  0.95677  0.10919  0.33382  1.0000
  C   C71       1.0  0.98150  0.09785  0.33440  1.0000
  N   N35       1.0  0.99800  0.13467  0.34136  1.0000
  C   C72       1.0  0.99062  0.18086  0.34933  1.0000
  N   N36       1.0  0.96595  0.19003  0.34899  1.0000
  C   C73       1.0  0.31628  0.24854  0.33913  1.0000
  N   N37       1.0  0.29765  0.28188  0.33641  1.0000
  C   C74       1.0  0.30215  0.33052  0.33871  1.0000
  N   N38       1.0  0.32618  0.34562  0.34353  1.0000
  C   C75       1.0  0.34540  0.31415  0.34739  1.0000
  N   N39       1.0  0.33963  0.26662  0.34543  1.0000
  C   C76       1.0  0.69235  0.76674  0.33493  1.0000
  N   N40       1.0  0.71091  0.73326  0.33452  1.0000
  C   C77       1.0  0.70631  0.68469  0.33794  1.0000
  N   N41       1.0  0.68223  0.66980  0.34161  1.0000
  C   C78       1.0  0.66304  0.70142  0.34299  1.0000
  N   N42       1.0  0.66892  0.74889  0.33992  1.0000
  C   C79       1.0  0.19242  0.74852  0.34497  1.0000
  N   N43       1.0  0.21104  0.78187  0.34763  1.0000
  C   C80       1.0  0.20654  0.83050  0.34530  1.0000
  N   N44       1.0  0.18251  0.84560  0.34048  1.0000
  C   C81       1.0  0.16329  0.81412  0.33668  1.0000
  N   N45       1.0  0.16906  0.76659  0.33867  1.0000
  C   C82       1.0  0.81635  0.26672  0.34917  1.0000
  N   N46       1.0  0.79778  0.23325  0.34967  1.0000
  C   C83       1.0  0.80236  0.18468  0.34633  1.0000
  N   N47       1.0  0.82644  0.16977  0.34263  1.0000
  C   C84       1.0  0.84564  0.20138  0.34116  1.0000
  N   N48       1.0  0.83977  0.24885  0.34415  1.0000
  C   C85       1.0  0.04744  0.34767  0.35719  1.0000
  N   N49       1.0  0.07231  0.35613  0.34762  1.0000
  C   C86       1.0  0.08081  0.40164  0.33012  1.0000
  N   N50       1.0  0.06388  0.43762  0.32221  1.0000
  C   C87       1.0  0.03928  0.43024  0.32914  1.0000
  N   N51       1.0  0.03170  0.38506  0.34615  1.0000
  C   C88       1.0  0.96293  0.66200  0.36154  1.0000
  N   N52       1.0  0.93782  0.65554  0.35354  1.0000
  C   C89       1.0  0.92824  0.61065  0.33821  1.0000
  N   N53       1.0  0.94445  0.57351  0.33106  1.0000
  C   C90       1.0  0.96918  0.57832  0.33703  1.0000
  N   N54       1.0  0.97779  0.62313  0.35121  1.0000
  C   C91       1.0  0.46124  0.84769  0.32682  1.0000
  N   N55       1.0  0.43636  0.85615  0.33641  1.0000
  C   C92       1.0  0.42786  0.90165  0.35390  1.0000
  N   N56       1.0  0.44479  0.93764  0.36185  1.0000
  C   C93       1.0  0.46939  0.93026  0.35483  1.0000
  N   N57       1.0  0.47697  0.88509  0.33780  1.0000
  C   C94       1.0  0.54574  0.16205  0.32281  1.0000
  N   N58       1.0  0.57085  0.15556  0.33061  1.0000
  C   C95       1.0  0.58042  0.11066  0.34589  1.0000
  N   N59       1.0  0.56420  0.07354  0.35303  1.0000
  C   C96       1.0  0.53947  0.07837  0.34715  1.0000
  N   N60       1.0  0.53087  0.12320  0.33306  1.0000
  C   C97       1.0  0.20526  0.54407  0.33781  1.0000
  N   N61       1.0  0.22511  0.51302  0.33471  1.0000
  C   C98       1.0  0.22197  0.46382  0.32857  1.0000
  N   N62       1.0  0.19827  0.44725  0.32561  1.0000
  C   C99       1.0  0.17808  0.47586  0.32664  1.0000
  N   N63       1.0  0.18247  0.52343  0.33347  1.0000
  C   C100      1.0  0.80311  0.47106  0.34441  1.0000
  N   N64       1.0  0.78330  0.50214  0.33995  1.0000
  C   C101      1.0  0.78650  0.55133  0.33393  1.0000
  N   N65       1.0  0.81021  0.56791  0.33228  1.0000
  C   C102      1.0  0.83038  0.53924  0.33464  1.0000
  N   N66       1.0  0.82590  0.49170  0.34135  1.0000
  C   C103      1.0  0.30343  0.04408  0.34640  1.0000
  N   N67       1.0  0.28357  0.01303  0.34939  1.0000
  C   C104      1.0  0.28671  0.96383  0.35545  1.0000
  N   N68       1.0  0.31040  0.94725  0.35844  1.0000
  C   C105      1.0  0.33060  0.97586  0.35750  1.0000
  N   N69       1.0  0.32621  0.02343  0.35075  1.0000
  C   C106      1.0  0.70558  0.97106  0.33970  1.0000
  N   N70       1.0  0.72538  0.00215  0.34419  1.0000
  C   C107      1.0  0.72217  0.05134  0.35023  1.0000
  N   N71       1.0  0.69845  0.06790  0.35186  1.0000
  C   C108      1.0  0.67829  0.03922  0.34944  1.0000
  N   N72       1.0  0.68278  0.99168  0.34269  1.0000
  C   C109      1.0  0.49305  0.46054  0.35373  1.0000
  N   N73       1.0  0.49226  0.54578  0.36181  1.0000
  C   C110      1.0  0.47962  0.50361  0.36298  1.0000
  H   H49       1.0  0.46077  0.50386  0.36949  1.0000
  N   N74       1.0  0.99060  0.96495  0.33954  1.0000
  C   C111      1.0  0.97764  0.00690  0.34022  1.0000
  C   C112      1.0  0.99131  0.05030  0.33118  1.0000
  C   C113      1.0  0.95051  0.00362  0.35337  1.0000
  H   H50       1.0  0.94449  0.96632  0.36060  1.0000
  H   H51       1.0  0.94091  0.01898  0.29554  1.0000
  H   H52       1.0  0.94515  0.02300  0.41418  1.0000
  N   N75       1.0  0.38784  0.29404  0.37139  1.0000
  C   C114      1.0  0.41278  0.30055  0.37466  1.0000
  C   C115      1.0  0.42233  0.34717  0.35397  1.0000
  C   C116      1.0  0.42740  0.25787  0.40211  1.0000
  H   H53       1.0  0.41545  0.22814  0.42276  1.0000
  H   H54       1.0  0.43932  0.26695  0.45898  1.0000
  H   H55       1.0  0.43872  0.24527  0.34609  1.0000
  N   N76       1.0  0.62032  0.72252  0.35659  1.0000
  C   C117      1.0  0.59535  0.71606  0.35817  1.0000
  C   C118      1.0  0.58602  0.66842  0.34625  1.0000
  C   C119      1.0  0.58050  0.76006  0.37432  1.0000
  H   H56       1.0  0.59227  0.79130  0.38702  1.0000
  H   H57       1.0  0.56863  0.75504  0.43305  1.0000
  H   H58       1.0  0.56912  0.76809  0.31557  1.0000
  C   C120      1.0  0.13795  0.82811  0.33279  1.0000
  N   N77       1.0  0.10352  0.88189  0.34855  1.0000
  C   C121      1.0  0.12853  0.87462  0.34977  1.0000
  H   H59       1.0  0.14004  0.90250  0.36571  1.0000
  C   C122      1.0  0.87104  0.18758  0.33869  1.0000
  N   N78       1.0  0.90529  0.13300  0.34824  1.0000
  C   C123      1.0  0.88030  0.14039  0.34884  1.0000
  H   H60       1.0  0.86865  0.11187  0.35827  1.0000
  C   C124      1.0  0.50594  0.29150  0.32426  1.0000
  N   N79       1.0  0.54242  0.24589  0.35464  1.0000
  C   C125      1.0  0.53010  0.28848  0.36019  1.0000
  H   H61       1.0  0.53754  0.31595  0.39695  1.0000
  C   C126      1.0  0.50117  0.71897  0.32407  1.0000
  N   N80       1.0  0.46515  0.76438  0.36174  1.0000
  C   C127      1.0  0.47787  0.72220  0.36678  1.0000
  H   H62       1.0  0.47160  0.69549  0.40808  1.0000
  N   N81       1.0  0.01137  0.75273  0.40528  1.0000
  C   C128      1.0  0.99887  0.71091  0.41598  1.0000
  C   C129      1.0  0.97528  0.70648  0.37322  1.0000
  C   C130      1.0  0.01143  0.67371  0.47099  1.0000
  H   H63       1.0  0.02674  0.68901  0.50962  1.0000
  H   H64       1.0  0.01905  0.64563  0.42791  1.0000
  H   H65       1.0  0.99833  0.65786  0.51846  1.0000
  N   N82       1.0  0.00025  0.25668  0.41085  1.0000
  C   C131      1.0  0.01338  0.29777  0.42147  1.0000
  C   C132      1.0  0.03590  0.30269  0.37193  1.0000
  C   C133      1.0  0.00238  0.33431  0.48213  1.0000
  H   H66       1.0  0.98832  0.31839  0.52580  1.0000
  H   H67       1.0  0.99349  0.36268  0.44311  1.0000
  H   H68       1.0  0.01672  0.34994  0.52490  1.0000
  C   C134      1.0  0.30388  0.09569  0.34001  1.0000
  N   N83       1.0  0.28983  0.17745  0.35419  1.0000
  C   C135      1.0  0.28466  0.12912  0.35612  1.0000
  H   H69       1.0  0.26727  0.11770  0.37274  1.0000
  C   C136      1.0  0.70512  0.91944  0.33353  1.0000
  N   N84       1.0  0.71886  0.83766  0.35087  1.0000
  C   C137      1.0  0.72413  0.88596  0.35223  1.0000
  H   H70       1.0  0.74139  0.89733  0.37066  1.0000
  N   N85       1.0  0.18261  0.61609  0.36459  1.0000
  C   C138      1.0  0.17695  0.66353  0.36870  1.0000
  C   C139      1.0  0.19611  0.69717  0.34832  1.0000
  C   C140      1.0  0.15102  0.67450  0.39469  1.0000
  H   H71       1.0  0.14089  0.64212  0.41425  1.0000
  H   H72       1.0  0.14117  0.69063  0.33818  1.0000
  H   H73       1.0  0.15080  0.69907  0.45192  1.0000
  N   N86       1.0  0.82572  0.39909  0.37204  1.0000
  C   C141      1.0  0.83146  0.35168  0.37579  1.0000
  C   C142      1.0  0.81250  0.31800  0.35338  1.0000
  C   C143      1.0  0.85728  0.34078  0.40334  1.0000
  H   H74       1.0  0.86722  0.37312  0.42428  1.0000
  H   H75       1.0  0.86746  0.32509  0.34715  1.0000
  H   H76       1.0  0.85727  0.31586  0.46004  1.0000
  C   C144      1.0  0.28257  0.36488  0.33515  1.0000
  N   N87       1.0  0.26513  0.44412  0.34545  1.0000
  C   C145      1.0  0.28537  0.41490  0.34923  1.0000
  H   H77       1.0  0.30223  0.42961  0.36397  1.0000
  C   C146      1.0  0.72588  0.65027  0.33619  1.0000
  N   N88       1.0  0.74328  0.57109  0.34864  1.0000
  C   C147      1.0  0.72303  0.60034  0.35107  1.0000
  H   H78       1.0  0.70611  0.58571  0.36524  1.0000
  N   N89       1.0  0.24942  0.84982  0.36777  1.0000
  C   C148      1.0  0.26986  0.87838  0.37303  1.0000
  C   C149      1.0  0.26706  0.92890  0.35660  1.0000
  C   C150      1.0  0.29307  0.85284  0.39707  1.0000
  H   H79       1.0  0.28976  0.81485  0.41137  1.0000
  H   H80       1.0  0.30123  0.86891  0.45716  1.0000
  H   H81       1.0  0.30623  0.85474  0.34148  1.0000
  N   N90       1.0  0.75942  0.16523  0.36618  1.0000
  C   C151      1.0  0.73895  0.13667  0.36998  1.0000
  C   C152      1.0  0.74182  0.08624  0.35289  1.0000
  C   C153      1.0  0.71566  0.16208  0.39338  1.0000
  H   H82       1.0  0.71891  0.19999  0.40855  1.0000
  H   H83       1.0  0.70728  0.14569  0.45277  1.0000
  H   H84       1.0  0.70270  0.16048  0.33713  1.0000
  C   C154      1.0  0.10595  0.41614  0.32402  1.0000
  N   N91       1.0  0.14963  0.41032  0.34576  1.0000
  C   C155      1.0  0.12696  0.38870  0.34713  1.0000
  H   H85       1.0  0.12537  0.35387  0.36807  1.0000
  C   C156      1.0  0.90290  0.59738  0.33216  1.0000
  N   N92       1.0  0.85925  0.60432  0.35413  1.0000
  C   C157      1.0  0.88209  0.62536  0.35542  1.0000
  H   H86       1.0  0.88396  0.66008  0.37669  1.0000
  N   N93       1.0  0.39833  0.96227  0.38556  1.0000
  C   C158      1.0  0.37605  0.98444  0.38899  1.0000
  C   C159      1.0  0.35503  0.95716  0.36214  1.0000
  C   C160      1.0  0.37619  0.03491  0.42083  1.0000
  H   H87       1.0  0.39455  0.04576  0.44436  1.0000
  H   H88       1.0  0.36323  0.03916  0.47664  1.0000
  H   H89       1.0  0.37099  0.05896  0.36611  1.0000
  N   N94       1.0  0.61057  0.05132  0.37696  1.0000
  C   C161      1.0  0.63295  0.02967  0.38039  1.0000
  C   C162      1.0  0.65377  0.05753  0.35369  1.0000
  C   C163      1.0  0.63302  0.97913  0.41198  1.0000
  H   H90       1.0  0.61475  0.96799  0.43580  1.0000
  H   H91       1.0  0.64606  0.97496  0.46755  1.0000
  H   H92       1.0  0.63823  0.95525  0.35702  1.0000
  N   N95       1.0  0.99763  0.45716  0.33939  1.0000
  C   C164      1.0  0.97901  0.48985  0.34232  1.0000
  C   C165      1.0  0.98559  0.53904  0.33150  1.0000
  C   C166      1.0  0.95385  0.47103  0.36084  1.0000
  H   H93       1.0  0.95402  0.43211  0.37088  1.0000
  H   H94       1.0  0.94165  0.47876  0.30419  1.0000
  H   H95       1.0  0.94640  0.48758  0.42168  1.0000
  C   C167      1.0  0.48676  0.96773  0.35830  1.0000
  N   N96       1.0  0.49868  0.04966  0.36577  1.0000
  C   C168      1.0  0.48041  0.01644  0.36973  1.0000
  H   H96       1.0  0.46250  0.02739  0.37883  1.0000
