data_image0
_chemical_formula_structural       C2HC2H3N2C2NCH3CHC2NCH3CHC4NC4NH4N2C2NHCHC2NHCHC2HC2H3N2C2NCH3CHC2NCH3CHC4NC4NH4N2C2NHCHC2NHCHC2HC2H3N2C2NCH3CHC2NCH3CHC4NC4NH4N2C2NHCHC2NHCHC2HC2H3N2C2NCH3CHC2NCH3CHC4NC4NH4N2C2NHCHC2NHCH
_chemical_formula_sum              "C104 H80 N40"
_cell_length_a       31.3406
_cell_length_b       31.3406
_cell_length_c       14.9545
_cell_angle_alpha    90
_cell_angle_beta     90
_cell_angle_gamma    90

_space_group_name_H-M_alt    "P 1"
_space_group_IT_number       1

loop_
  _space_group_symop_operation_xyz
  'x, y, z'

loop_
  _atom_site_type_symbol
  _atom_site_label
  _atom_site_symmetry_multiplicity
  _atom_site_fract_x
  _atom_site_fract_y
  _atom_site_fract_z
  _atom_site_occupancy
  C   C1        1.0  0.50099  0.43697  0.32398  1.0000
  C   C2        1.0  0.46927  0.40483  0.32834  1.0000
  H   H1        1.0  0.03164  0.42664  0.31949  1.0000
  C   C3        1.0  0.04429  0.09161  0.33218  1.0000
  C   C4        1.0  0.01391  0.05878  0.32081  1.0000
  H   H2        1.0  0.48357  0.06872  0.31021  1.0000
  H   H3        1.0  0.10779  0.14157  0.37878  1.0000
  H   H4        1.0  0.40210  0.35661  0.36188  1.0000
  N   N1        1.0  0.03402  0.13358  0.32826  1.0000
  N   N2        1.0  0.47827  0.36264  0.32131  1.0000
  C   C5        1.0  0.96937  0.26937  0.28293  1.0000
  C   C6        1.0  0.00259  0.20202  0.31163  1.0000
  N   N3        1.0  0.96876  0.22601  0.28671  1.0000
  C   C7        1.0  0.93018  0.28767  0.24293  1.0000
  H   H5        1.0  0.93460  0.31986  0.21754  1.0000
  H   H6        1.0  0.90462  0.28742  0.29241  1.0000
  H   H7        1.0  0.92003  0.26835  0.18596  1.0000
  C   C8        1.0  0.99911  0.15746  0.31235  1.0000
  H   H8        1.0  0.97080  0.14327  0.29599  1.0000
  C   C9        1.0  0.23697  0.03803  0.29958  1.0000
  C   C10       1.0  0.30388  0.00228  0.31659  1.0000
  N   N4        1.0  0.28034  0.03738  0.29850  1.0000
  C   C11       1.0  0.21800  0.07918  0.27207  1.0000
  H   H9        1.0  0.19157  0.07425  0.22573  1.0000
  H   H10       1.0  0.24132  0.09953  0.23837  1.0000
  H   H11       1.0  0.20717  0.09609  0.33116  1.0000
  C   C12       1.0  0.34849  0.00509  0.31525  1.0000
  H   H12       1.0  0.36277  0.03376  0.30234  1.0000
  C   C13       1.0  0.49151  0.48154  0.32337  1.0000
  C   C14       1.0  0.42558  0.41618  0.33501  1.0000
  C   C15       1.0  0.41449  0.45983  0.32818  1.0000
  C   C16       1.0  0.44693  0.49107  0.32302  1.0000
  N   N5        1.0  0.39476  0.38584  0.34761  1.0000
  C   C17       1.0  0.02401  0.01440  0.32490  1.0000
  C   C18       1.0  0.06868  0.00560  0.33110  1.0000
  C   C19       1.0  0.10019  0.03780  0.33995  1.0000
  C   C20       1.0  0.08758  0.08111  0.34751  1.0000
  N   N6        1.0  0.11639  0.11210  0.36969  1.0000
  H   H13       1.0  0.14354  0.10437  0.39573  1.0000
  H   H14       1.0  0.36487  0.39322  0.35516  1.0000
  H   H15       1.0  0.43655  0.02166  0.32223  1.0000
  H   H16       1.0  0.07954  0.47510  0.32882  1.0000
  N   N7        1.0  0.14281  0.02997  0.33546  1.0000
  N   N8        1.0  0.37235  0.46971  0.32609  1.0000
  C   C21       1.0  0.50734  0.29163  0.30832  1.0000
  C   C22       1.0  0.54280  0.26560  0.33031  1.0000
  N   N9        1.0  0.53950  0.22247  0.33203  1.0000
  H   H17       1.0  0.57135  0.27871  0.34884  1.0000
  C   C23       1.0  0.51221  0.33641  0.31591  1.0000
  H   H18       1.0  0.54173  0.34922  0.32742  1.0000
  C   C24       1.0  0.21410  0.50008  0.32230  1.0000
  C   C25       1.0  0.23959  0.46336  0.33692  1.0000
  N   N10       1.0  0.28284  0.46542  0.33464  1.0000
  H   H19       1.0  0.22605  0.43463  0.35263  1.0000
  C   C26       1.0  0.16921  0.49603  0.33056  1.0000
  H   H20       1.0  0.15607  0.46640  0.33885  1.0000
  C   C27       1.0  0.50099  0.93697  0.32398  1.0000
  C   C28       1.0  0.46927  0.90483  0.32834  1.0000
  H   H21       1.0  0.03164  0.92664  0.31949  1.0000
  C   C29       1.0  0.04429  0.59161  0.33218  1.0000
  C   C30       1.0  0.01391  0.55878  0.32081  1.0000
  H   H22       1.0  0.48357  0.56872  0.31021  1.0000
  H   H23       1.0  0.10779  0.64157  0.37878  1.0000
  H   H24       1.0  0.40210  0.85661  0.36188  1.0000
  N   N11       1.0  0.03402  0.63358  0.32826  1.0000
  N   N12       1.0  0.47827  0.86264  0.32131  1.0000
  C   C31       1.0  0.96937  0.76937  0.28293  1.0000
  C   C32       1.0  0.00259  0.70202  0.31163  1.0000
  N   N13       1.0  0.96876  0.72601  0.28671  1.0000
  C   C33       1.0  0.93018  0.78767  0.24293  1.0000
  H   H25       1.0  0.93460  0.81986  0.21754  1.0000
  H   H26       1.0  0.90462  0.78742  0.29241  1.0000
  H   H27       1.0  0.92003  0.76835  0.18596  1.0000
  C   C34       1.0  0.99911  0.65746  0.31235  1.0000
  H   H28       1.0  0.97080  0.64327  0.29599  1.0000
  C   C35       1.0  0.23697  0.53803  0.29958  1.0000
  C   C36       1.0  0.30388  0.50228  0.31659  1.0000
  N   N14       1.0  0.28034  0.53738  0.29850  1.0000
  C   C37       1.0  0.21800  0.57918  0.27207  1.0000
  H   H29       1.0  0.19157  0.57425  0.22573  1.0000
  H   H30       1.0  0.24132  0.59953  0.23837  1.0000
  H   H31       1.0  0.20717  0.59610  0.33116  1.0000
  C   C38       1.0  0.34849  0.50509  0.31525  1.0000
  H   H32       1.0  0.36277  0.53376  0.30234  1.0000
  C   C39       1.0  0.49151  0.98154  0.32337  1.0000
  C   C40       1.0  0.42558  0.91618  0.33501  1.0000
  C   C41       1.0  0.41449  0.95983  0.32818  1.0000
  C   C42       1.0  0.44693  0.99107  0.32302  1.0000
  N   N15       1.0  0.39476  0.88585  0.34761  1.0000
  C   C43       1.0  0.02401  0.51440  0.32490  1.0000
  C   C44       1.0  0.06868  0.50561  0.33110  1.0000
  C   C45       1.0  0.10019  0.53780  0.33995  1.0000
  C   C46       1.0  0.08758  0.58111  0.34751  1.0000
  N   N16       1.0  0.11639  0.61210  0.36969  1.0000
  H   H33       1.0  0.14354  0.60438  0.39573  1.0000
  H   H34       1.0  0.36487  0.89322  0.35516  1.0000
  H   H35       1.0  0.43655  0.52167  0.32223  1.0000
  H   H36       1.0  0.07954  0.97510  0.32882  1.0000
  N   N17       1.0  0.14281  0.52997  0.33546  1.0000
  N   N18       1.0  0.37235  0.96972  0.32609  1.0000
  C   C47       1.0  0.50734  0.79163  0.30832  1.0000
  C   C48       1.0  0.54280  0.76560  0.33031  1.0000
  N   N19       1.0  0.53950  0.72247  0.33203  1.0000
  H   H37       1.0  0.57135  0.77870  0.34884  1.0000
  C   C49       1.0  0.51221  0.83641  0.31591  1.0000
  H   H38       1.0  0.54173  0.84923  0.32742  1.0000
  C   C50       1.0  0.21410  0.00008  0.32230  1.0000
  C   C51       1.0  0.23959  0.96336  0.33692  1.0000
  N   N20       1.0  0.28284  0.96541  0.33464  1.0000
  H   H39       1.0  0.22605  0.93463  0.35263  1.0000
  C   C52       1.0  0.16921  0.99603  0.33056  1.0000
  H   H40       1.0  0.15607  0.96640  0.33885  1.0000
  C   C53       1.0  0.00099  0.43697  0.32398  1.0000
  C   C54       1.0  0.96927  0.40483  0.32834  1.0000
  H   H41       1.0  0.53164  0.42664  0.31949  1.0000
  C   C55       1.0  0.54429  0.09161  0.33218  1.0000
  C   C56       1.0  0.51391  0.05878  0.32081  1.0000
  H   H42       1.0  0.98357  0.06872  0.31021  1.0000
  H   H43       1.0  0.60779  0.14157  0.37878  1.0000
  H   H44       1.0  0.90210  0.35661  0.36188  1.0000
  N   N21       1.0  0.53402  0.13358  0.32826  1.0000
  N   N22       1.0  0.97827  0.36264  0.32131  1.0000
  C   C57       1.0  0.46937  0.26937  0.28293  1.0000
  C   C58       1.0  0.50259  0.20202  0.31163  1.0000
  N   N23       1.0  0.46876  0.22601  0.28671  1.0000
  C   C59       1.0  0.43018  0.28767  0.24293  1.0000
  H   H45       1.0  0.43460  0.31986  0.21754  1.0000
  H   H46       1.0  0.40462  0.28742  0.29241  1.0000
  H   H47       1.0  0.42003  0.26835  0.18596  1.0000
  C   C60       1.0  0.49911  0.15746  0.31235  1.0000
  H   H48       1.0  0.47080  0.14327  0.29599  1.0000
  C   C61       1.0  0.73697  0.03803  0.29958  1.0000
  C   C62       1.0  0.80388  0.00228  0.31659  1.0000
  N   N24       1.0  0.78034  0.03738  0.29850  1.0000
  C   C63       1.0  0.71800  0.07918  0.27207  1.0000
  H   H49       1.0  0.69157  0.07425  0.22573  1.0000
  H   H50       1.0  0.74132  0.09953  0.23837  1.0000
  H   H51       1.0  0.70717  0.09609  0.33116  1.0000
  C   C64       1.0  0.84849  0.00509  0.31525  1.0000
  H   H52       1.0  0.86277  0.03376  0.30234  1.0000
  C   C65       1.0  0.99151  0.48154  0.32337  1.0000
  C   C66       1.0  0.92558  0.41618  0.33501  1.0000
  C   C67       1.0  0.91449  0.45983  0.32818  1.0000
  C   C68       1.0  0.94693  0.49107  0.32302  1.0000
  N   N25       1.0  0.89476  0.38584  0.34761  1.0000
  C   C69       1.0  0.52401  0.01440  0.32490  1.0000
  C   C70       1.0  0.56868  0.00560  0.33110  1.0000
  C   C71       1.0  0.60019  0.03780  0.33995  1.0000
  C   C72       1.0  0.58758  0.08111  0.34751  1.0000
  N   N26       1.0  0.61639  0.11210  0.36969  1.0000
  H   H53       1.0  0.64354  0.10437  0.39573  1.0000
  H   H54       1.0  0.86487  0.39322  0.35516  1.0000
  H   H55       1.0  0.93655  0.02166  0.32223  1.0000
  H   H56       1.0  0.57954  0.47510  0.32882  1.0000
  N   N27       1.0  0.64281  0.02997  0.33546  1.0000
  N   N28       1.0  0.87235  0.46971  0.32609  1.0000
  C   C73       1.0  0.00734  0.29163  0.30832  1.0000
  C   C74       1.0  0.04280  0.26560  0.33031  1.0000
  N   N29       1.0  0.03950  0.22247  0.33203  1.0000
  H   H57       1.0  0.07135  0.27871  0.34884  1.0000
  C   C75       1.0  0.01221  0.33641  0.31591  1.0000
  H   H58       1.0  0.04173  0.34922  0.32742  1.0000
  C   C76       1.0  0.71410  0.50008  0.32230  1.0000
  C   C77       1.0  0.73959  0.46336  0.33692  1.0000
  N   N30       1.0  0.78284  0.46542  0.33464  1.0000
  H   H59       1.0  0.72605  0.43463  0.35263  1.0000
  C   C78       1.0  0.66920  0.49603  0.33056  1.0000
  H   H60       1.0  0.65607  0.46640  0.33885  1.0000
  C   C79       1.0  0.00099  0.93697  0.32398  1.0000
  C   C80       1.0  0.96927  0.90483  0.32834  1.0000
  H   H61       1.0  0.53164  0.92664  0.31949  1.0000
  C   C81       1.0  0.54429  0.59161  0.33218  1.0000
  C   C82       1.0  0.51391  0.55878  0.32081  1.0000
  H   H62       1.0  0.98357  0.56872  0.31021  1.0000
  H   H63       1.0  0.60779  0.64157  0.37878  1.0000
  H   H64       1.0  0.90210  0.85661  0.36188  1.0000
  N   N31       1.0  0.53402  0.63358  0.32826  1.0000
  N   N32       1.0  0.97827  0.86264  0.32131  1.0000
  C   C83       1.0  0.46937  0.76937  0.28293  1.0000
  C   C84       1.0  0.50259  0.70202  0.31163  1.0000
  N   N33       1.0  0.46876  0.72601  0.28671  1.0000
  C   C85       1.0  0.43018  0.78767  0.24293  1.0000
  H   H65       1.0  0.43460  0.81986  0.21754  1.0000
  H   H66       1.0  0.40462  0.78742  0.29241  1.0000
  H   H67       1.0  0.42003  0.76835  0.18596  1.0000
  C   C86       1.0  0.49911  0.65746  0.31235  1.0000
  H   H68       1.0  0.47080  0.64327  0.29599  1.0000
  C   C87       1.0  0.73697  0.53803  0.29958  1.0000
  C   C88       1.0  0.80388  0.50228  0.31659  1.0000
  N   N34       1.0  0.78034  0.53738  0.29850  1.0000
  C   C89       1.0  0.71800  0.57918  0.27207  1.0000
  H   H69       1.0  0.69157  0.57425  0.22573  1.0000
  H   H70       1.0  0.74132  0.59953  0.23837  1.0000
  H   H71       1.0  0.70717  0.59610  0.33116  1.0000
  C   C90       1.0  0.84849  0.50509  0.31525  1.0000
  H   H72       1.0  0.86277  0.53376  0.30234  1.0000
  C   C91       1.0  0.99151  0.98154  0.32337  1.0000
  C   C92       1.0  0.92558  0.91618  0.33501  1.0000
  C   C93       1.0  0.91449  0.95983  0.32818  1.0000
  C   C94       1.0  0.94693  0.99107  0.32302  1.0000
  N   N35       1.0  0.89476  0.88585  0.34761  1.0000
  C   C95       1.0  0.52401  0.51440  0.32490  1.0000
  C   C96       1.0  0.56868  0.50561  0.33110  1.0000
  C   C97       1.0  0.60019  0.53780  0.33995  1.0000
  C   C98       1.0  0.58758  0.58111  0.34751  1.0000
  N   N36       1.0  0.61639  0.61210  0.36969  1.0000
  H   H73       1.0  0.64354  0.60438  0.39573  1.0000
  H   H74       1.0  0.86487  0.89322  0.35516  1.0000
  H   H75       1.0  0.93655  0.52167  0.32223  1.0000
  H   H76       1.0  0.57954  0.97510  0.32882  1.0000
  N   N37       1.0  0.64281  0.52997  0.33546  1.0000
  N   N38       1.0  0.87235  0.96972  0.32609  1.0000
  C   C99       1.0  0.00734  0.79163  0.30832  1.0000
  C   C100      1.0  0.04280  0.76560  0.33031  1.0000
  N   N39       1.0  0.03950  0.72247  0.33203  1.0000
  H   H77       1.0  0.07135  0.77870  0.34884  1.0000
  C   C101      1.0  0.01221  0.83641  0.31591  1.0000
  H   H78       1.0  0.04173  0.84923  0.32742  1.0000
  C   C102      1.0  0.71410  0.00008  0.32230  1.0000
  C   C103      1.0  0.73959  0.96336  0.33692  1.0000
  N   N40       1.0  0.78284  0.96541  0.33464  1.0000
  H   H79       1.0  0.72605  0.93463  0.35263  1.0000
  C   C104      1.0  0.66920  0.99603  0.33056  1.0000
  H   H80       1.0  0.65607  0.96640  0.33885  1.0000
