data_image0
_chemical_formula_structural       C17H11C8H3NO3C8H5C2HC2H2NO2C6HC6H5N2O3C17H11C8H3NO3C8H5C2HC2H2NO2C6HC6H5N2O3C17H11C8H3NO3C8H5C2HC2H2NO2C6HC6H5N2O3C17H11C8H3NO3C8H5C2HC2H2NO2C6HC6H5N2O3
_chemical_formula_sum              "C196 H112 N16 O32"
_cell_length_a       32.7234
_cell_length_b       32.7238
_cell_length_c       15.0051
_cell_angle_alpha    90
_cell_angle_beta     90
_cell_angle_gamma    89.9485

_space_group_name_H-M_alt    "P 1"
_space_group_IT_number       1

loop_
  _space_group_symop_operation_xyz
  'x, y, z'

loop_
  _atom_site_type_symbol
  _atom_site_label
  _atom_site_symmetry_multiplicity
  _atom_site_fract_x
  _atom_site_fract_y
  _atom_site_fract_z
  _atom_site_occupancy
  C   C1        1.0  0.99658  0.39773  0.29114  1.0000
  C   C2        1.0  0.03394  0.41297  0.25717  1.0000
  C   C3        1.0  0.03471  0.44665  0.19895  1.0000
  C   C4        1.0  0.99818  0.46512  0.16764  1.0000
  C   C5        1.0  0.46163  0.45316  0.21162  1.0000
  C   C6        1.0  0.46069  0.42004  0.27116  1.0000
  C   C7        1.0  0.99788  0.99923  0.09809  1.0000
  C   C8        1.0  0.00059  0.03622  0.15986  1.0000
  C   C9        1.0  0.46554  0.05572  0.19602  1.0000
  C   C10       1.0  0.46877  0.09085  0.24961  1.0000
  C   C11       1.0  0.00742  0.10693  0.27280  1.0000
  C   C12       1.0  0.04250  0.08489  0.24615  1.0000
  C   C13       1.0  0.03902  0.04997  0.19230  1.0000
  C   C14       1.0  0.03198  0.99909  0.02844  1.0000
  C   C15       1.0  0.46082  0.49659  0.03653  1.0000
  C   C16       1.0  0.44160  0.03173  0.00009  1.0000
  C   C17       1.0  0.44690  0.45823  0.00409  1.0000
  H   H1        1.0  0.45186  0.06031  0.01568  1.0000
  H   H2        1.0  0.46103  0.43177  0.02321  1.0000
  H   H3        1.0  0.04153  0.43487  0.02045  1.0000
  H   H4        1.0  0.06542  0.03571  0.17328  1.0000
  H   H5        1.0  0.07109  0.09505  0.26270  1.0000
  H   H6        1.0  0.44251  0.10587  0.26711  1.0000
  H   H7        1.0  0.43691  0.04558  0.18049  1.0000
  H   H8        1.0  0.43449  0.46705  0.19661  1.0000
  H   H9        1.0  0.06248  0.45599  0.17555  1.0000
  H   H10       1.0  0.06085  0.39797  0.26885  1.0000
  H   H11       1.0  0.43301  0.41097  0.29597  1.0000
  C   C18       1.0  0.99458  0.35809  0.33130  1.0000
  C   C19       1.0  0.46423  0.33019  0.30280  1.0000
  C   C20       1.0  0.46714  0.28842  0.32258  1.0000
  C   C21       1.0  0.00078  0.27303  0.37101  1.0000
  C   C22       1.0  0.00926  0.23071  0.36133  1.0000
  C   C23       1.0  0.03556  0.21765  0.29165  1.0000
  C   C24       1.0  0.03641  0.17587  0.26797  1.0000
  C   C25       1.0  0.01100  0.14680  0.31030  1.0000
  H   H12       1.0  0.55358  0.16745  0.21394  1.0000
  H   H13       1.0  0.44202  0.33897  0.25875  1.0000
  H   H14       1.0  0.44697  0.26887  0.29240  1.0000
  N   N1        1.0  0.05802  0.24682  0.24177  1.0000
  O   O1        1.0  0.04651  0.24805  0.16189  1.0000
  O   O2        1.0  0.09570  0.23948  0.24369  1.0000
  O   O3        1.0  0.30050  0.53534  0.31176  1.0000
  C   C26       1.0  0.40673  0.02869  0.61233  1.0000
  C   C27       1.0  0.39059  0.49013  0.58853  1.0000
  C   C28       1.0  0.41220  0.45494  0.61611  1.0000
  C   C29       1.0  0.05074  0.46271  0.66384  1.0000
  C   C30       1.0  0.08483  0.46379  0.60674  1.0000
  C   C31       1.0  0.10006  0.00130  0.57347  1.0000
  C   C32       1.0  0.07725  0.03697  0.59267  1.0000
  C   C33       1.0  0.04389  0.03577  0.65154  1.0000
  H   H15       1.0  0.39206  0.05505  0.59428  1.0000
  H   H16       1.0  0.40204  0.42641  0.59905  1.0000
  H   H17       1.0  0.10009  0.43701  0.59535  1.0000
  H   H18       1.0  0.08625  0.06475  0.56828  1.0000
  H   H19       1.0  0.02981  0.06281  0.66650  1.0000
  C   C34       1.0  0.03012  0.30066  0.40564  1.0000
  C   C35       1.0  0.02616  0.34294  0.38684  1.0000
  H   H20       1.0  0.04861  0.36230  0.40846  1.0000
  C   C36       1.0  0.98564  0.16026  0.38076  1.0000
  C   C37       1.0  0.98467  0.20169  0.40580  1.0000
  H   H21       1.0  0.96612  0.14033  0.41152  1.0000
  H   H22       1.0  0.96407  0.21089  0.45309  1.0000
  N   N2        1.0  0.06388  0.28508  0.45395  1.0000
  O   O4        1.0  0.06465  0.29931  0.53169  1.0000
  O   O5        1.0  0.09720  0.29347  0.41653  1.0000
  C   C38       1.0  0.13995  0.00370  0.53438  1.0000
  C   C39       1.0  0.15574  0.47239  0.47913  1.0000
  C   C40       1.0  0.19770  0.47029  0.45917  1.0000
  C   C41       1.0  0.22507  0.99997  0.49238  1.0000
  C   C42       1.0  0.20954  0.03304  0.54340  1.0000
  C   C43       1.0  0.16729  0.03461  0.56280  1.0000
  H   H23       1.0  0.15756  0.05669  0.60620  1.0000
  C   C44       1.0  0.26757  0.99117  0.49564  1.0000
  C   C45       1.0  0.29707  0.01580  0.45200  1.0000
  C   C46       1.0  0.33860  0.01308  0.47845  1.0000
  C   C47       1.0  0.35117  0.98696  0.54849  1.0000
  C   C48       1.0  0.32153  0.96123  0.58782  1.0000
  C   C49       1.0  0.28042  0.96336  0.56201  1.0000
  H   H24       1.0  0.35946  0.53208  0.44908  1.0000
  H   H25       1.0  0.32875  0.94337  0.64159  1.0000
  H   H26       1.0  0.13732  0.44906  0.45806  1.0000
  H   H27       1.0  0.25946  0.94692  0.59791  1.0000
  H   H28       1.0  0.20857  0.44520  0.42594  1.0000
  N   N3        1.0  0.23677  0.06202  0.58094  1.0000
  N   N4        1.0  0.28412  0.04355  0.38534  1.0000
  O   O6        1.0  0.23657  0.06080  0.66466  1.0000
  O   O7        1.0  0.22823  0.09771  0.55629  1.0000
  O   O8        1.0  0.29277  0.07981  0.40537  1.0000
  C   C50       1.0  0.99658  0.89773  0.29114  1.0000
  C   C51       1.0  0.03394  0.91297  0.25717  1.0000
  C   C52       1.0  0.03471  0.94665  0.19895  1.0000
  C   C53       1.0  0.99818  0.96512  0.16764  1.0000
  C   C54       1.0  0.46163  0.95317  0.21162  1.0000
  C   C55       1.0  0.46069  0.92004  0.27116  1.0000
  C   C56       1.0  0.99788  0.49923  0.09809  1.0000
  C   C57       1.0  0.00059  0.53622  0.15986  1.0000
  C   C58       1.0  0.46554  0.55572  0.19602  1.0000
  C   C59       1.0  0.46877  0.59085  0.24961  1.0000
  C   C60       1.0  0.00742  0.60692  0.27280  1.0000
  C   C61       1.0  0.04250  0.58489  0.24615  1.0000
  C   C62       1.0  0.03902  0.54997  0.19230  1.0000
  C   C63       1.0  0.03198  0.49909  0.02844  1.0000
  C   C64       1.0  0.46082  0.99659  0.03653  1.0000
  C   C65       1.0  0.44160  0.53173  0.00009  1.0000
  C   C66       1.0  0.44690  0.95823  0.00409  1.0000
  H   H29       1.0  0.45185  0.56031  0.01568  1.0000
  H   H30       1.0  0.46103  0.93177  0.02321  1.0000
  H   H31       1.0  0.04153  0.93487  0.02045  1.0000
  H   H32       1.0  0.06542  0.53571  0.17328  1.0000
  H   H33       1.0  0.07109  0.59505  0.26270  1.0000
  H   H34       1.0  0.44251  0.60586  0.26711  1.0000
  H   H35       1.0  0.43691  0.54558  0.18049  1.0000
  H   H36       1.0  0.43449  0.96705  0.19661  1.0000
  H   H37       1.0  0.06248  0.95599  0.17555  1.0000
  H   H38       1.0  0.06085  0.89797  0.26885  1.0000
  H   H39       1.0  0.43301  0.91097  0.29597  1.0000
  C   C67       1.0  0.99458  0.85809  0.33130  1.0000
  C   C68       1.0  0.46423  0.83019  0.30280  1.0000
  C   C69       1.0  0.46714  0.78842  0.32258  1.0000
  C   C70       1.0  0.00078  0.77303  0.37101  1.0000
  C   C71       1.0  0.00926  0.73071  0.36133  1.0000
  C   C72       1.0  0.03556  0.71765  0.29165  1.0000
  C   C73       1.0  0.03641  0.67587  0.26797  1.0000
  C   C74       1.0  0.01100  0.64680  0.31030  1.0000
  H   H40       1.0  0.55358  0.66745  0.21394  1.0000
  H   H41       1.0  0.44202  0.83897  0.25875  1.0000
  H   H42       1.0  0.44697  0.76887  0.29240  1.0000
  N   N5        1.0  0.05802  0.74682  0.24177  1.0000
  O   O9        1.0  0.04651  0.74805  0.16189  1.0000
  O   O10       1.0  0.09570  0.73948  0.24369  1.0000
  O   O11       1.0  0.30050  0.03534  0.31176  1.0000
  C   C75       1.0  0.40673  0.52869  0.61233  1.0000
  C   C76       1.0  0.39059  0.99013  0.58853  1.0000
  C   C77       1.0  0.41220  0.95494  0.61611  1.0000
  C   C78       1.0  0.05074  0.96271  0.66384  1.0000
  C   C79       1.0  0.08483  0.96379  0.60674  1.0000
  C   C80       1.0  0.10006  0.50130  0.57347  1.0000
  C   C81       1.0  0.07725  0.53697  0.59267  1.0000
  C   C82       1.0  0.04389  0.53577  0.65154  1.0000
  H   H43       1.0  0.39206  0.55505  0.59428  1.0000
  H   H44       1.0  0.40204  0.92641  0.59905  1.0000
  H   H45       1.0  0.10009  0.93700  0.59535  1.0000
  H   H46       1.0  0.08625  0.56475  0.56828  1.0000
  H   H47       1.0  0.02981  0.56281  0.66650  1.0000
  C   C83       1.0  0.03012  0.80066  0.40564  1.0000
  C   C84       1.0  0.02616  0.84294  0.38684  1.0000
  H   H48       1.0  0.04861  0.86230  0.40846  1.0000
  C   C85       1.0  0.98564  0.66026  0.38076  1.0000
  C   C86       1.0  0.98467  0.70169  0.40580  1.0000
  H   H49       1.0  0.96612  0.64033  0.41152  1.0000
  H   H50       1.0  0.96407  0.71090  0.45309  1.0000
  N   N6        1.0  0.06388  0.78508  0.45395  1.0000
  O   O12       1.0  0.06465  0.79931  0.53169  1.0000
  O   O13       1.0  0.09720  0.79347  0.41653  1.0000
  C   C87       1.0  0.13995  0.50371  0.53438  1.0000
  C   C88       1.0  0.15574  0.97239  0.47913  1.0000
  C   C89       1.0  0.19770  0.97029  0.45917  1.0000
  C   C90       1.0  0.22507  0.49997  0.49238  1.0000
  C   C91       1.0  0.20954  0.53304  0.54340  1.0000
  C   C92       1.0  0.16729  0.53461  0.56280  1.0000
  H   H51       1.0  0.15756  0.55669  0.60620  1.0000
  C   C93       1.0  0.26757  0.49117  0.49564  1.0000
  C   C94       1.0  0.29707  0.51580  0.45200  1.0000
  C   C95       1.0  0.33860  0.51309  0.47845  1.0000
  C   C96       1.0  0.35117  0.48696  0.54849  1.0000
  C   C97       1.0  0.32153  0.46124  0.58782  1.0000
  C   C98       1.0  0.28042  0.46336  0.56201  1.0000
  H   H52       1.0  0.35946  0.03208  0.44908  1.0000
  H   H53       1.0  0.32875  0.44337  0.64159  1.0000
  H   H54       1.0  0.13732  0.94906  0.45806  1.0000
  H   H55       1.0  0.25946  0.44692  0.59791  1.0000
  H   H56       1.0  0.20857  0.94520  0.42594  1.0000
  N   N7        1.0  0.23677  0.56202  0.58094  1.0000
  N   N8        1.0  0.28412  0.54355  0.38534  1.0000
  O   O14       1.0  0.23657  0.56081  0.66466  1.0000
  O   O15       1.0  0.22823  0.59771  0.55629  1.0000
  O   O16       1.0  0.29277  0.57981  0.40537  1.0000
  C   C99       1.0  0.49658  0.39773  0.29114  1.0000
  C   C100      1.0  0.53394  0.41297  0.25717  1.0000
  C   C101      1.0  0.53471  0.44665  0.19895  1.0000
  C   C102      1.0  0.49818  0.46512  0.16764  1.0000
  C   C103      1.0  0.96163  0.45316  0.21162  1.0000
  C   C104      1.0  0.96069  0.42004  0.27116  1.0000
  C   C105      1.0  0.49788  0.99923  0.09809  1.0000
  C   C106      1.0  0.50059  0.03622  0.15986  1.0000
  C   C107      1.0  0.96554  0.05572  0.19602  1.0000
  C   C108      1.0  0.96877  0.09085  0.24961  1.0000
  C   C109      1.0  0.50742  0.10693  0.27280  1.0000
  C   C110      1.0  0.54250  0.08489  0.24615  1.0000
  C   C111      1.0  0.53902  0.04997  0.19230  1.0000
  C   C112      1.0  0.53198  0.99909  0.02844  1.0000
  C   C113      1.0  0.96082  0.49659  0.03653  1.0000
  C   C114      1.0  0.94160  0.03173  0.00009  1.0000
  C   C115      1.0  0.94690  0.45823  0.00409  1.0000
  H   H57       1.0  0.95186  0.06031  0.01568  1.0000
  H   H58       1.0  0.96103  0.43177  0.02321  1.0000
  H   H59       1.0  0.54153  0.43487  0.02045  1.0000
  H   H60       1.0  0.56542  0.03571  0.17328  1.0000
  H   H61       1.0  0.57109  0.09505  0.26270  1.0000
  H   H62       1.0  0.94251  0.10587  0.26711  1.0000
  H   H63       1.0  0.93691  0.04558  0.18049  1.0000
  H   H64       1.0  0.93449  0.46705  0.19661  1.0000
  H   H65       1.0  0.56248  0.45599  0.17555  1.0000
  H   H66       1.0  0.56085  0.39797  0.26885  1.0000
  H   H67       1.0  0.93301  0.41097  0.29597  1.0000
  C   C116      1.0  0.49458  0.35809  0.33130  1.0000
  C   C117      1.0  0.96423  0.33019  0.30280  1.0000
  C   C118      1.0  0.96714  0.28842  0.32258  1.0000
  C   C119      1.0  0.50078  0.27303  0.37101  1.0000
  C   C120      1.0  0.50926  0.23071  0.36133  1.0000
  C   C121      1.0  0.53556  0.21765  0.29165  1.0000
  C   C122      1.0  0.53641  0.17587  0.26797  1.0000
  C   C123      1.0  0.51100  0.14680  0.31030  1.0000
  H   H68       1.0  0.05359  0.16745  0.21394  1.0000
  H   H69       1.0  0.94202  0.33897  0.25875  1.0000
  H   H70       1.0  0.94697  0.26887  0.29240  1.0000
  N   N9        1.0  0.55802  0.24682  0.24177  1.0000
  O   O17       1.0  0.54651  0.24805  0.16189  1.0000
  O   O18       1.0  0.59570  0.23948  0.24369  1.0000
  O   O19       1.0  0.80050  0.53534  0.31176  1.0000
  C   C124      1.0  0.90674  0.02869  0.61233  1.0000
  C   C125      1.0  0.89059  0.49013  0.58853  1.0000
  C   C126      1.0  0.91220  0.45494  0.61611  1.0000
  C   C127      1.0  0.55074  0.46271  0.66384  1.0000
  C   C128      1.0  0.58483  0.46379  0.60674  1.0000
  C   C129      1.0  0.60006  0.00130  0.57347  1.0000
  C   C130      1.0  0.57725  0.03697  0.59267  1.0000
  C   C131      1.0  0.54389  0.03577  0.65154  1.0000
  H   H71       1.0  0.89206  0.05505  0.59428  1.0000
  H   H72       1.0  0.90204  0.42641  0.59905  1.0000
  H   H73       1.0  0.60009  0.43701  0.59535  1.0000
  H   H74       1.0  0.58624  0.06475  0.56828  1.0000
  H   H75       1.0  0.52981  0.06281  0.66650  1.0000
  C   C132      1.0  0.53012  0.30066  0.40564  1.0000
  C   C133      1.0  0.52616  0.34294  0.38684  1.0000
  H   H76       1.0  0.54861  0.36230  0.40846  1.0000
  C   C134      1.0  0.48564  0.16026  0.38076  1.0000
  C   C135      1.0  0.48467  0.20169  0.40580  1.0000
  H   H77       1.0  0.46612  0.14033  0.41152  1.0000
  H   H78       1.0  0.46407  0.21089  0.45309  1.0000
  N   N10       1.0  0.56388  0.28508  0.45395  1.0000
  O   O20       1.0  0.56465  0.29931  0.53169  1.0000
  O   O21       1.0  0.59720  0.29347  0.41653  1.0000
  C   C136      1.0  0.63995  0.00370  0.53438  1.0000
  C   C137      1.0  0.65574  0.47239  0.47913  1.0000
  C   C138      1.0  0.69770  0.47029  0.45917  1.0000
  C   C139      1.0  0.72507  0.99997  0.49238  1.0000
  C   C140      1.0  0.70954  0.03304  0.54340  1.0000
  C   C141      1.0  0.66729  0.03461  0.56280  1.0000
  H   H79       1.0  0.65756  0.05669  0.60620  1.0000
  C   C142      1.0  0.76757  0.99117  0.49564  1.0000
  C   C143      1.0  0.79707  0.01580  0.45200  1.0000
  C   C144      1.0  0.83860  0.01308  0.47845  1.0000
  C   C145      1.0  0.85117  0.98696  0.54849  1.0000
  C   C146      1.0  0.82154  0.96123  0.58782  1.0000
  C   C147      1.0  0.78042  0.96336  0.56201  1.0000
  H   H80       1.0  0.85946  0.53208  0.44908  1.0000
  H   H81       1.0  0.82875  0.94337  0.64159  1.0000
  H   H82       1.0  0.63732  0.44906  0.45806  1.0000
  H   H83       1.0  0.75946  0.94692  0.59791  1.0000
  H   H84       1.0  0.70857  0.44520  0.42594  1.0000
  N   N11       1.0  0.73677  0.06202  0.58094  1.0000
  N   N12       1.0  0.78412  0.04355  0.38534  1.0000
  O   O22       1.0  0.73658  0.06080  0.66466  1.0000
  O   O23       1.0  0.72823  0.09771  0.55629  1.0000
  O   O24       1.0  0.79277  0.07981  0.40537  1.0000
  C   C148      1.0  0.49658  0.89773  0.29114  1.0000
  C   C149      1.0  0.53394  0.91297  0.25717  1.0000
  C   C150      1.0  0.53471  0.94665  0.19895  1.0000
  C   C151      1.0  0.49818  0.96512  0.16764  1.0000
  C   C152      1.0  0.96162  0.95317  0.21162  1.0000
  C   C153      1.0  0.96069  0.92004  0.27116  1.0000
  C   C154      1.0  0.49788  0.49923  0.09809  1.0000
  C   C155      1.0  0.50059  0.53622  0.15986  1.0000
  C   C156      1.0  0.96554  0.55572  0.19602  1.0000
  C   C157      1.0  0.96877  0.59085  0.24961  1.0000
  C   C158      1.0  0.50742  0.60692  0.27280  1.0000
  C   C159      1.0  0.54250  0.58489  0.24615  1.0000
  C   C160      1.0  0.53901  0.54997  0.19230  1.0000
  C   C161      1.0  0.53198  0.49909  0.02844  1.0000
  C   C162      1.0  0.96082  0.99659  0.03653  1.0000
  C   C163      1.0  0.94160  0.53173  0.00009  1.0000
  C   C164      1.0  0.94690  0.95823  0.00409  1.0000
  H   H85       1.0  0.95186  0.56031  0.01568  1.0000
  H   H86       1.0  0.96103  0.93177  0.02321  1.0000
  H   H87       1.0  0.54153  0.93487  0.02045  1.0000
  H   H88       1.0  0.56542  0.53571  0.17328  1.0000
  H   H89       1.0  0.57109  0.59505  0.26270  1.0000
  H   H90       1.0  0.94251  0.60586  0.26711  1.0000
  H   H91       1.0  0.93691  0.54558  0.18049  1.0000
  H   H92       1.0  0.93449  0.96705  0.19661  1.0000
  H   H93       1.0  0.56248  0.95599  0.17555  1.0000
  H   H94       1.0  0.56085  0.89797  0.26885  1.0000
  H   H95       1.0  0.93301  0.91097  0.29597  1.0000
  C   C165      1.0  0.49458  0.85809  0.33130  1.0000
  C   C166      1.0  0.96423  0.83019  0.30280  1.0000
  C   C167      1.0  0.96714  0.78842  0.32258  1.0000
  C   C168      1.0  0.50078  0.77303  0.37101  1.0000
  C   C169      1.0  0.50926  0.73071  0.36133  1.0000
  C   C170      1.0  0.53556  0.71765  0.29165  1.0000
  C   C171      1.0  0.53641  0.67587  0.26797  1.0000
  C   C172      1.0  0.51100  0.64680  0.31030  1.0000
  H   H96       1.0  0.05359  0.66745  0.21394  1.0000
  H   H97       1.0  0.94202  0.83897  0.25875  1.0000
  H   H98       1.0  0.94697  0.76887  0.29240  1.0000
  N   N13       1.0  0.55802  0.74682  0.24177  1.0000
  O   O25       1.0  0.54651  0.74805  0.16189  1.0000
  O   O26       1.0  0.59570  0.73948  0.24369  1.0000
  O   O27       1.0  0.80050  0.03534  0.31176  1.0000
  C   C173      1.0  0.90674  0.52869  0.61233  1.0000
  C   C174      1.0  0.89059  0.99013  0.58853  1.0000
  C   C175      1.0  0.91220  0.95494  0.61611  1.0000
  C   C176      1.0  0.55074  0.96271  0.66384  1.0000
  C   C177      1.0  0.58483  0.96379  0.60674  1.0000
  C   C178      1.0  0.60006  0.50130  0.57347  1.0000
  C   C179      1.0  0.57725  0.53697  0.59267  1.0000
  C   C180      1.0  0.54389  0.53577  0.65154  1.0000
  H   H99       1.0  0.89206  0.55505  0.59428  1.0000
  H   H100      1.0  0.90204  0.92641  0.59905  1.0000
  H   H101      1.0  0.60009  0.93700  0.59535  1.0000
  H   H102      1.0  0.58625  0.56475  0.56828  1.0000
  H   H103      1.0  0.52981  0.56281  0.66650  1.0000
  C   C181      1.0  0.53012  0.80066  0.40564  1.0000
  C   C182      1.0  0.52616  0.84294  0.38684  1.0000
  H   H104      1.0  0.54861  0.86230  0.40846  1.0000
  C   C183      1.0  0.48564  0.66026  0.38076  1.0000
  C   C184      1.0  0.48467  0.70169  0.40580  1.0000
  H   H105      1.0  0.46612  0.64033  0.41152  1.0000
  H   H106      1.0  0.46407  0.71090  0.45309  1.0000
  N   N14       1.0  0.56389  0.78508  0.45395  1.0000
  O   O28       1.0  0.56465  0.79931  0.53169  1.0000
  O   O29       1.0  0.59720  0.79347  0.41653  1.0000
  C   C185      1.0  0.63995  0.50371  0.53438  1.0000
  C   C186      1.0  0.65573  0.97239  0.47913  1.0000
  C   C187      1.0  0.69770  0.97029  0.45917  1.0000
  C   C188      1.0  0.72507  0.49997  0.49238  1.0000
  C   C189      1.0  0.70954  0.53304  0.54340  1.0000
  C   C190      1.0  0.66729  0.53461  0.56280  1.0000
  H   H107      1.0  0.65756  0.55669  0.60620  1.0000
  C   C191      1.0  0.76757  0.49117  0.49564  1.0000
  C   C192      1.0  0.79707  0.51580  0.45200  1.0000
  C   C193      1.0  0.83860  0.51309  0.47845  1.0000
  C   C194      1.0  0.85117  0.48696  0.54849  1.0000
  C   C195      1.0  0.82154  0.46124  0.58782  1.0000
  C   C196      1.0  0.78042  0.46336  0.56201  1.0000
  H   H108      1.0  0.85946  0.03208  0.44908  1.0000
  H   H109      1.0  0.82875  0.44337  0.64159  1.0000
  H   H110      1.0  0.63732  0.94906  0.45806  1.0000
  H   H111      1.0  0.75946  0.44692  0.59791  1.0000
  H   H112      1.0  0.70857  0.94520  0.42594  1.0000
  N   N15       1.0  0.73677  0.56202  0.58094  1.0000
  N   N16       1.0  0.78412  0.54355  0.38534  1.0000
  O   O30       1.0  0.73658  0.56081  0.66466  1.0000
  O   O31       1.0  0.72823  0.59771  0.55629  1.0000
  O   O32       1.0  0.79277  0.57981  0.40537  1.0000
