data_image0
_chemical_formula_structural       C5HOC5HNOCNC3H2C2H2CNCOHC2HCHCH2C2HCH2C3OC2OCN2HC3HC2H2C2NC3HCNOHC4HC4H2NO2C4H4C4H4CN2CN2CNCNCNCNHC4H4C4HC4H2NO2C4HC4H2NO2
_chemical_formula_sum              "C84 H42 O12 N18"
_cell_length_a       33.9926
_cell_length_b       33.9948
_cell_length_c       14.7496
_cell_angle_alpha    90
_cell_angle_beta     90
_cell_angle_gamma    120.007

_space_group_name_H-M_alt    "P 1"
_space_group_IT_number       1

loop_
  _space_group_symop_operation_xyz
  'x, y, z'

loop_
  _atom_site_type_symbol
  _atom_site_label
  _atom_site_symmetry_multiplicity
  _atom_site_fract_x
  _atom_site_fract_y
  _atom_site_fract_z
  _atom_site_occupancy
  C   C1        1.0  0.25080  0.12964  0.34987  1.0000
  C   C2        1.0  0.20236  0.10492  0.35048  1.0000
  C   C3        1.0  0.10482  0.05535  0.35030  1.0000
  C   C4        1.0  0.13021  0.03548  0.31810  1.0000
  C   C5        1.0  0.17810  0.05997  0.31719  1.0000
  H   H1        1.0  0.19518  0.04452  0.29275  1.0000
  O   O1        1.0  0.26172  0.11455  0.13179  1.0000
  C   C6        1.0  0.88650  0.12544  0.34983  1.0000
  C   C7        1.0  0.91122  0.10173  0.35044  1.0000
  C   C8        1.0  0.96079  0.05376  0.35027  1.0000
  C   C9        1.0  0.98065  0.09902  0.31803  1.0000
  C   C10       1.0  0.95617  0.12242  0.31713  1.0000
  H   H2        1.0  0.01308  0.11529  0.29310  1.0000
  N   N1        1.0  0.87851  0.11900  0.18467  1.0000
  O   O2        1.0  0.84197  0.09165  0.14592  1.0000
  C   C11       1.0  0.98547  0.02989  0.35019  1.0000
  N   N2        1.0  0.03175  0.05242  0.35019  1.0000
  C   C12       1.0  0.05625  0.03067  0.35019  1.0000
  C   C13       1.0  0.17739  0.12484  0.38375  1.0000
  C   C14       1.0  0.12949  0.10065  0.38265  1.0000
  H   H3        1.0  0.11278  0.11639  0.40741  1.0000
  H   H4        1.0  0.25732  0.12635  0.49254  1.0000
  C   C15       1.0  0.89130  0.05683  0.38373  1.0000
  C   C16       1.0  0.91549  0.03313  0.38261  1.0000
  H   H5        1.0  0.85872  0.04080  0.40795  1.0000
  H   H6        1.0  0.60323  0.11741  0.44375  1.0000
  C   C17       1.0  0.27591  0.14574  0.26799  1.0000
  N   N3        1.0  0.25235  0.13767  0.18472  1.0000
  C   C18       1.0  0.87043  0.13447  0.26795  1.0000
  O   O3        1.0  0.90165  0.15151  0.13177  1.0000
  H   H7        1.0  0.54330  0.14205  0.21991  1.0000
  C   C19       1.0  0.27468  0.13799  0.43270  1.0000
  C   C20       1.0  0.87811  0.14093  0.43268  1.0000
  H   H8        1.0  0.88973  0.13519  0.49251  1.0000
  C   C21       1.0  0.62427  0.14066  0.39697  1.0000
  H   H9        1.0  0.68110  0.13568  0.43698  1.0000
  C   C22       1.0  0.84616  0.15841  0.27104  1.0000
  H   H10       1.0  0.83482  0.16494  0.21175  1.0000
  H   H11       1.0  0.97162  0.15495  0.29271  1.0000
  C   C23       1.0  0.49790  0.15736  0.28575  1.0000
  C   C24       1.0  0.53551  0.15067  0.28117  1.0000
  H   H12       1.0  0.48034  0.15461  0.22742  1.0000
  C   C25       1.0  0.32251  0.16120  0.43457  1.0000
  H   H13       1.0  0.19394  0.15742  0.40796  1.0000
  H   H14       1.0  0.33877  0.16611  0.49550  1.0000
  C   C26       1.0  0.85491  0.16555  0.43454  1.0000
  C   C27       1.0  0.56492  0.16025  0.35627  1.0000
  C   C28       1.0  0.66996  0.15098  0.39220  1.0000
  O   O4        1.0  0.56525  0.16483  0.58233  1.0000
  C   C29       1.0  0.34778  0.17778  0.35381  1.0000
  C   C30       1.0  0.32411  0.17000  0.27108  1.0000
  O   O5        1.0  0.26154  0.17421  0.14601  1.0000
  C   C31       1.0  0.83837  0.17427  0.35377  1.0000
  N   N4        1.0  0.41696  0.17513  0.36164  1.0000
  N   N5        1.0  0.76996  0.17914  0.34593  1.0000
  H   H15       1.0  0.84997  0.17687  0.49548  1.0000
  C   C32       1.0  0.48852  0.17371  0.36600  1.0000
  C   C33       1.0  0.55475  0.17521  0.43846  1.0000
  C   C34       1.0  0.60832  0.16412  0.34263  1.0000
  H   H16       1.0  0.34199  0.18136  0.21181  1.0000
  C   C35       1.0  0.63901  0.19714  0.28118  1.0000
  C   C36       1.0  0.68465  0.20801  0.27761  1.0000
  H   H17       1.0  0.62936  0.21612  0.24328  1.0000
  H   H18       1.0  0.70636  0.23410  0.23628  1.0000
  C   C37       1.0  0.39571  0.20007  0.35497  1.0000
  C   C38       1.0  0.46305  0.19599  0.36069  1.0000
  N   N6        1.0  0.48720  0.24164  0.35097  1.0000
  C   C39       1.0  0.74866  0.20406  0.34317  1.0000
  C   C40       1.0  0.81607  0.19990  0.35494  1.0000
  C   C41       1.0  0.51668  0.18165  0.44219  1.0000
  H   H19       1.0  0.51206  0.19627  0.49888  1.0000
  C   C42       1.0  0.70112  0.18586  0.33439  1.0000
  N   N7        1.0  0.58500  0.18771  0.51300  1.0000
  O   O6        1.0  0.60255  0.22920  0.53182  1.0000
  H   H20       1.0  0.11405  0.00307  0.29311  1.0000
  C   C43       1.0  0.84186  0.66838  0.35375  1.0000
  C   C44       1.0  0.89069  0.76536  0.34985  1.0000
  C   C45       1.0  0.88163  0.74026  0.26795  1.0000
  C   C46       1.0  0.85770  0.69206  0.27102  1.0000
  H   H21       1.0  0.85115  0.67419  0.21172  1.0000
  C   C47       1.0  0.91440  0.81379  0.35048  1.0000
  C   C48       1.0  0.96236  0.91132  0.35031  1.0000
  C   C49       1.0  0.91711  0.88593  0.31808  1.0000
  C   C50       1.0  0.89369  0.83804  0.31719  1.0000
  H   H22       1.0  0.90084  0.90208  0.29313  1.0000
  H   H23       1.0  0.86117  0.82095  0.29272  1.0000
  N   N8        1.0  0.89709  0.76383  0.18468  1.0000
  O   O7        1.0  0.86457  0.75445  0.13181  1.0000
  O   O8        1.0  0.92444  0.75465  0.14588  1.0000
  C   C51       1.0  0.85878  0.34489  0.28559  1.0000
  C   C52       1.0  0.86559  0.38923  0.28113  1.0000
  C   C53       1.0  0.81901  0.44618  0.28117  1.0000
  C   C54       1.0  0.80815  0.48095  0.27755  1.0000
  H   H24       1.0  0.80018  0.41764  0.24293  1.0000
  H   H25       1.0  0.78218  0.47664  0.23594  1.0000
  H   H26       1.0  0.86182  0.33021  0.22736  1.0000
  H   H27       1.0  0.87433  0.40572  0.21995  1.0000
  C   C55       1.0  0.67126  0.51823  0.28531  1.0000
  C   C56       1.0  0.62694  0.48065  0.28088  1.0000
  C   C57       1.0  0.57004  0.37709  0.28119  1.0000
  C   C58       1.0  0.53526  0.33146  0.27761  1.0000
  H   H28       1.0  0.59862  0.38680  0.24310  1.0000
  H   H29       1.0  0.53963  0.30977  0.23618  1.0000
  H   H30       1.0  0.68601  0.53592  0.22709  1.0000
  H   H31       1.0  0.61044  0.47287  0.21971  1.0000
  C   C59       1.0  0.98625  0.95989  0.35021  1.0000
  N   N9        1.0  0.96372  0.98363  0.35020  1.0000
  N   N10       1.0  0.03250  0.98440  0.35021  1.0000
  C   C60       1.0  0.46731  0.26746  0.34314  1.0000
  N   N11       1.0  0.42108  0.24617  0.34591  1.0000
  N   N12       1.0  0.84100  0.24609  0.36153  1.0000
  C   C61       1.0  0.82014  0.27131  0.36061  1.0000
  N   N13       1.0  0.77448  0.24979  0.35091  1.0000
  C   C62       1.0  0.81207  0.54888  0.34309  1.0000
  N   N14       1.0  0.83699  0.59511  0.34591  1.0000
  C   C63       1.0  0.81623  0.62045  0.35489  1.0000
  N   N15       1.0  0.77004  0.59920  0.36137  1.0000
  C   C64       1.0  0.74481  0.55310  0.36033  1.0000
  N   N16       1.0  0.76633  0.52897  0.35072  1.0000
  H   H32       1.0  0.89975  0.00068  0.40743  1.0000
  C   C65       1.0  0.85061  0.69364  0.43453  1.0000
  C   C66       1.0  0.87522  0.74147  0.43268  1.0000
  C   C67       1.0  0.95929  0.83877  0.38379  1.0000
  C   C68       1.0  0.98300  0.88667  0.38265  1.0000
  H   H33       1.0  0.97534  0.82223  0.40798  1.0000
  H   H34       1.0  0.01545  0.90338  0.40746  1.0000
  H   H35       1.0  0.83930  0.67737  0.49547  1.0000
  H   H36       1.0  0.88098  0.75881  0.49254  1.0000
  C   C69       1.0  0.84241  0.31906  0.36570  1.0000
  C   C70       1.0  0.85589  0.40898  0.35620  1.0000
  C   C71       1.0  0.84079  0.38376  0.43826  1.0000
  C   C72       1.0  0.83427  0.33921  0.44179  1.0000
  H   H37       1.0  0.81975  0.31999  0.49856  1.0000
  C   C73       1.0  0.85203  0.44851  0.34261  1.0000
  C   C74       1.0  0.83026  0.51955  0.33439  1.0000
  C   C75       1.0  0.86508  0.52324  0.39234  1.0000
  C   C76       1.0  0.87541  0.48788  0.39711  1.0000
  H   H38       1.0  0.88035  0.54965  0.43718  1.0000
  H   H39       1.0  0.89863  0.49006  0.44395  1.0000
  N   N17       1.0  0.82823  0.40143  0.51283  1.0000
  O   O9        1.0  0.85103  0.40446  0.58223  1.0000
  O   O10       1.0  0.78671  0.37750  0.53146  1.0000
  C   C77       1.0  0.69704  0.52762  0.36547  1.0000
  C   C78       1.0  0.60723  0.45123  0.35600  1.0000
  C   C79       1.0  0.63243  0.46135  0.43809  1.0000
  C   C80       1.0  0.67696  0.49941  0.44167  1.0000
  H   H40       1.0  0.69623  0.50412  0.49836  1.0000
  C   C81       1.0  0.56766  0.40784  0.34244  1.0000
  C   C82       1.0  0.49666  0.31500  0.33443  1.0000
  C   C83       1.0  0.49300  0.34614  0.39238  1.0000
  C   C84       1.0  0.52829  0.39187  0.39690  1.0000
  H   H41       1.0  0.46649  0.33503  0.43699  1.0000
  H   H42       1.0  0.52609  0.41292  0.44366  1.0000
  N   N18       1.0  0.61474  0.43111  0.51265  1.0000
  O   O11       1.0  0.61169  0.45086  0.58204  1.0000
  O   O12       1.0  0.63870  0.41355  0.53131  1.0000
