data_image0
_chemical_formula_structural       C18H9C3O3C18H9C3O3C4H3CH3NHC4H3CH3NHC4H3CH3NHC6H6C6H6C4H3CH3NHC4H3CH3NHC4H3CH3NH
_chemical_formula_sum              "C84 H72 O6 N6"
_cell_length_a       37.1453
_cell_length_b       37.1453
_cell_length_c       15.0027
_cell_angle_alpha    90
_cell_angle_beta     90
_cell_angle_gamma    120

_space_group_name_H-M_alt    "P 1"
_space_group_IT_number       1

loop_
  _space_group_symop_operation_xyz
  'x, y, z'

loop_
  _atom_site_type_symbol
  _atom_site_label
  _atom_site_symmetry_multiplicity
  _atom_site_fract_x
  _atom_site_fract_y
  _atom_site_fract_z
  _atom_site_occupancy
  C   C1        1.0  0.28902  0.64027  0.33793  1.0000
  C   C2        1.0  0.30746  0.68408  0.33790  1.0000
  C   C3        1.0  0.35108  0.71076  0.33796  1.0000
  C   C4        1.0  0.37645  0.69233  0.33799  1.0000
  C   C5        1.0  0.35951  0.64870  0.33801  1.0000
  C   C6        1.0  0.31571  0.62333  0.33795  1.0000
  C   C7        1.0  0.36899  0.75500  0.33809  1.0000
  C   C8        1.0  0.35246  0.77463  0.28434  1.0000
  C   C9        1.0  0.36986  0.81806  0.28494  1.0000
  C   C10       1.0  0.40501  0.84351  0.33796  1.0000
  C   C11       1.0  0.24479  0.61395  0.33803  1.0000
  C   C12       1.0  0.15627  0.56145  0.33786  1.0000
  C   C13       1.0  0.18173  0.55174  0.28490  1.0000
  C   C14       1.0  0.22516  0.57778  0.28430  1.0000
  C   C15       1.0  0.38584  0.63079  0.33822  1.0000
  C   C16       1.0  0.43834  0.59478  0.33820  1.0000
  C   C17       1.0  0.44806  0.62994  0.28522  1.0000
  C   C18       1.0  0.42203  0.64734  0.28456  1.0000
  H   H1        1.0  0.16880  0.52614  0.24433  1.0000
  H   H2        1.0  0.24229  0.57028  0.24282  1.0000
  H   H3        1.0  0.42953  0.67194  0.24300  1.0000
  H   H4        1.0  0.47366  0.64259  0.24466  1.0000
  H   H5        1.0  0.35720  0.83099  0.24436  1.0000
  H   H6        1.0  0.32785  0.75751  0.24281  1.0000
  H   H7        1.0  0.28863  0.69687  0.33791  1.0000
  H   H8        1.0  0.30291  0.59171  0.33801  1.0000
  H   H9        1.0  0.40807  0.71115  0.33806  1.0000
  C   C19       1.0  0.42256  0.88733  0.33759  1.0000
  C   C20       1.0  0.11245  0.53518  0.33746  1.0000
  C   C21       1.0  0.46460  0.57722  0.33787  1.0000
  O   O1        1.0  0.50621  0.60349  0.33323  1.0000
  O   O2        1.0  0.09712  0.49357  0.33289  1.0000
  O   O3        1.0  0.39628  0.90266  0.33292  1.0000
  C   C22       1.0  0.71067  0.35919  0.31211  1.0000
  C   C23       1.0  0.69200  0.31537  0.31208  1.0000
  C   C24       1.0  0.64834  0.28911  0.31208  1.0000
  C   C25       1.0  0.62319  0.30777  0.31204  1.0000
  C   C26       1.0  0.64059  0.35144  0.31206  1.0000
  C   C27       1.0  0.68441  0.37659  0.31207  1.0000
  C   C28       1.0  0.63012  0.24496  0.31248  1.0000
  C   C29       1.0  0.64461  0.22486  0.25462  1.0000
  C   C30       1.0  0.62664  0.18135  0.25520  1.0000
  C   C31       1.0  0.59326  0.15633  0.31301  1.0000
  C   C32       1.0  0.75482  0.38512  0.31252  1.0000
  C   C33       1.0  0.84345  0.43690  0.31310  1.0000
  C   C34       1.0  0.81844  0.44526  0.25529  1.0000
  C   C35       1.0  0.77493  0.41971  0.25468  1.0000
  C   C36       1.0  0.61466  0.36966  0.31242  1.0000
  C   C37       1.0  0.56290  0.40653  0.31287  1.0000
  C   C38       1.0  0.55457  0.37317  0.25501  1.0000
  C   C39       1.0  0.58010  0.35519  0.25448  1.0000
  H   H10       1.0  0.83171  0.46960  0.21142  1.0000
  H   H11       1.0  0.75809  0.42627  0.21022  1.0000
  H   H12       1.0  0.57355  0.33179  0.21004  1.0000
  H   H13       1.0  0.53023  0.36209  0.21114  1.0000
  H   H14       1.0  0.63771  0.16809  0.21133  1.0000
  H   H15       1.0  0.66800  0.24170  0.21016  1.0000
  H   H16       1.0  0.71062  0.30232  0.31222  1.0000
  H   H17       1.0  0.69747  0.40826  0.31220  1.0000
  H   H18       1.0  0.59152  0.28916  0.31214  1.0000
  C   C40       1.0  0.57541  0.11233  0.31309  1.0000
  C   C41       1.0  0.88745  0.46304  0.31320  1.0000
  C   C42       1.0  0.53676  0.42439  0.31290  1.0000
  O   O4        1.0  0.49605  0.39952  0.29237  1.0000
  O   O5        1.0  0.90329  0.50376  0.29287  1.0000
  O   O6        1.0  0.60029  0.09650  0.29268  1.0000
  C   C43       1.0  0.52609  0.48266  0.33168  1.0000
  C   C44       1.0  0.51692  0.49629  0.25044  1.0000
  C   C45       1.0  0.48977  0.51307  0.25206  1.0000
  C   C46       1.0  0.47657  0.52596  0.16904  1.0000
  H   H19       1.0  0.48658  0.51859  0.10700  1.0000
  H   H20       1.0  0.48895  0.55947  0.16968  1.0000
  H   H21       1.0  0.44271  0.51039  0.16617  1.0000
  C   C47       1.0  0.53609  0.49376  0.16444  1.0000
  H   H22       1.0  0.55866  0.48339  0.17116  1.0000
  H   H23       1.0  0.55254  0.52443  0.13343  1.0000
  H   H24       1.0  0.51185  0.47207  0.11941  1.0000
  N   N1        1.0  0.55102  0.46532  0.33040  1.0000
  H   H25       1.0  0.58055  0.48417  0.34056  1.0000
  C   C48       1.0  0.51712  0.04339  0.33177  1.0000
  C   C49       1.0  0.50348  0.02063  0.25047  1.0000
  C   C50       1.0  0.48670  0.97670  0.25198  1.0000
  C   C51       1.0  0.47380  0.95066  0.16890  1.0000
  H   H26       1.0  0.48118  0.96807  0.10691  1.0000
  H   H27       1.0  0.44029  0.92953  0.16952  1.0000
  H   H28       1.0  0.48938  0.93237  0.16595  1.0000
  C   C52       1.0  0.50601  0.04238  0.16454  1.0000
  H   H29       1.0  0.51640  0.07533  0.17136  1.0000
  H   H30       1.0  0.47535  0.02819  0.13354  1.0000
  H   H31       1.0  0.52770  0.03985  0.11947  1.0000
  N   N2        1.0  0.53447  0.08566  0.33061  1.0000
  H   H32       1.0  0.51561  0.09635  0.34053  1.0000
  C   C53       1.0  0.95638  0.47367  0.33183  1.0000
  C   C54       1.0  0.97912  0.48278  0.25052  1.0000
  C   C55       1.0  0.02305  0.50992  0.25197  1.0000
  C   C56       1.0  0.04908  0.52305  0.16886  1.0000
  H   H33       1.0  0.03165  0.51300  0.10689  1.0000
  H   H34       1.0  0.07021  0.51067  0.16947  1.0000
  H   H35       1.0  0.06737  0.55691  0.16588  1.0000
  C   C57       1.0  0.95735  0.46355  0.16461  1.0000
  H   H36       1.0  0.92441  0.44099  0.17146  1.0000
  H   H37       1.0  0.97153  0.44707  0.13360  1.0000
  H   H38       1.0  0.95988  0.48776  0.11953  1.0000
  N   N3        1.0  0.91411  0.44876  0.33073  1.0000
  H   H39       1.0  0.90343  0.41921  0.34051  1.0000
  C   C58       1.0  0.42169  0.82416  0.39171  1.0000
  C   C59       1.0  0.40381  0.78066  0.39216  1.0000
  C   C60       1.0  0.21911  0.62311  0.39206  1.0000
  C   C61       1.0  0.17562  0.59751  0.39156  1.0000
  C   C62       1.0  0.37667  0.59597  0.39230  1.0000
  C   C63       1.0  0.40226  0.57807  0.39187  1.0000
  H   H40       1.0  0.15833  0.60494  0.43273  1.0000
  H   H41       1.0  0.23189  0.64827  0.43379  1.0000
  H   H42       1.0  0.35148  0.58357  0.43395  1.0000
  H   H43       1.0  0.39481  0.55334  0.43302  1.0000
  H   H44       1.0  0.41619  0.76788  0.43390  1.0000
  H   H45       1.0  0.44642  0.84144  0.43287  1.0000
  C   C64       1.0  0.57902  0.17645  0.37143  1.0000
  C   C65       1.0  0.59712  0.21996  0.37117  1.0000
  C   C66       1.0  0.77981  0.37712  0.37123  1.0000
  C   C67       1.0  0.82332  0.40253  0.37151  1.0000
  C   C68       1.0  0.62264  0.40265  0.37113  1.0000
  C   C69       1.0  0.59724  0.42076  0.37135  1.0000
  H   H46       1.0  0.83998  0.39611  0.41667  1.0000
  H   H47       1.0  0.76648  0.35306  0.41576  1.0000
  H   H48       1.0  0.64668  0.41336  0.41573  1.0000
  H   H49       1.0  0.60362  0.44381  0.41655  1.0000
  H   H50       1.0  0.58640  0.23330  0.41572  1.0000
  H   H51       1.0  0.55595  0.15979  0.41661  1.0000
  C   C70       1.0  0.47422  0.51786  0.33537  1.0000
  C   C71       1.0  0.48344  0.50431  0.41654  1.0000
  C   C72       1.0  0.50966  0.48647  0.41467  1.0000
  C   C73       1.0  0.46594  0.50863  0.50347  1.0000
  H   H52       1.0  0.44608  0.52233  0.49800  1.0000
  H   H53       1.0  0.49117  0.52840  0.54870  1.0000
  H   H54       1.0  0.44714  0.47813  0.53397  1.0000
  C   C74       1.0  0.51961  0.47197  0.49976  1.0000
  H   H55       1.0  0.54017  0.45919  0.49191  1.0000
  H   H56       1.0  0.49105  0.44764  0.53000  1.0000
  H   H57       1.0  0.53490  0.49788  0.54630  1.0000
  N   N4        1.0  0.44943  0.53542  0.33719  1.0000
  H   H58       1.0  0.41950  0.51638  0.33665  1.0000
  C   C75       1.0  0.48191  0.95632  0.33523  1.0000
  C   C76       1.0  0.49547  0.97905  0.41645  1.0000
  C   C77       1.0  0.51332  0.02312  0.41469  1.0000
  C   C78       1.0  0.49114  0.95718  0.50332  1.0000
  H   H59       1.0  0.47744  0.92363  0.49778  1.0000
  H   H60       1.0  0.47139  0.96263  0.54860  1.0000
  H   H61       1.0  0.52165  0.96886  0.53380  1.0000
  C   C79       1.0  0.52782  0.04752  0.49984  1.0000
  H   H62       1.0  0.54061  0.08086  0.49207  1.0000
  H   H63       1.0  0.55216  0.04327  0.53002  1.0000
  H   H64       1.0  0.50192  0.03688  0.54639  1.0000
  N   N5        1.0  0.46436  0.91398  0.33694  1.0000
  H   H65       1.0  0.48340  0.90308  0.33654  1.0000
  C   C80       1.0  0.04345  0.52553  0.33520  1.0000
  C   C81       1.0  0.02074  0.51638  0.41645  1.0000
  C   C82       1.0  0.97668  0.49017  0.41473  1.0000
  C   C83       1.0  0.04264  0.53394  0.50329  1.0000
  H   H66       1.0  0.07619  0.55378  0.49770  1.0000
  H   H67       1.0  0.03719  0.50874  0.54858  1.0000
  H   H68       1.0  0.03097  0.55277  0.53376  1.0000
  C   C84       1.0  0.95230  0.48029  0.49990  1.0000
  H   H69       1.0  0.91895  0.45973  0.49217  1.0000
  H   H70       1.0  0.95656  0.50888  0.53006  1.0000
  H   H71       1.0  0.96295  0.46503  0.54645  1.0000
  N   N6        1.0  0.08580  0.55033  0.33686  1.0000
  H   H72       1.0  0.09669  0.58026  0.33643  1.0000
