data_image0
_chemical_formula_structural       C4HC2O2C4N2O4NHC4N2O4NHC6HC5HCH3C2O2C2H2NHC2H2NHC4HC2O2C4N2O4NHC4N2O4NHC6HC5HCH3C2O2C2H2NHC2H2NHC4HC2O2C4N2O4NHC4N2O4NHC6HC5HCH3C2O2C2H2NHC2H2NHC4HC2O2C4N2O4NHC4N2O4NHC6HC5HCH3C2O2C2H2NHC2H2NH
_chemical_formula_sum              "C128 H56 O48 N32"
_cell_length_a       30.7518
_cell_length_b       30.7518
_cell_length_c       14.9869
_cell_angle_alpha    90
_cell_angle_beta     90
_cell_angle_gamma    90

_space_group_name_H-M_alt    "P 1"
_space_group_IT_number       1

loop_
  _space_group_symop_operation_xyz
  'x, y, z'

loop_
  _atom_site_type_symbol
  _atom_site_label
  _atom_site_symmetry_multiplicity
  _atom_site_fract_x
  _atom_site_fract_y
  _atom_site_fract_z
  _atom_site_occupancy
  C   C1        1.0  0.46391  0.09429  0.25832  1.0000
  C   C2        1.0  0.49433  0.06338  0.29241  1.0000
  C   C3        1.0  0.99977  0.44447  0.35918  1.0000
  C   C4        1.0  0.02931  0.41461  0.39957  1.0000
  H   H1        1.0  0.44546  0.40164  0.35156  1.0000
  C   C5        1.0  0.47155  0.13996  0.25028  1.0000
  C   C6        1.0  0.02182  0.36910  0.40773  1.0000
  O   O1        1.0  0.44436  0.16364  0.19790  1.0000
  O   O2        1.0  0.04257  0.34782  0.47479  1.0000
  C   C7        1.0  0.99951  0.20733  0.31365  1.0000
  C   C8        1.0  0.00677  0.30056  0.32783  1.0000
  C   C9        1.0  0.01337  0.27915  0.24444  1.0000
  C   C10       1.0  0.01057  0.23291  0.23733  1.0000
  N   N1        1.0  0.02540  0.30531  0.17027  1.0000
  N   N2        1.0  0.02706  0.21425  0.15749  1.0000
  O   O3        1.0  0.06327  0.29786  0.14270  1.0000
  O   O4        1.0  0.99978  0.20675  0.09728  1.0000
  O   O5        1.0  0.99875  0.30270  0.10695  1.0000
  O   O6        1.0  0.05393  0.18377  0.16646  1.0000
  N   N3        1.0  0.00956  0.34506  0.33495  1.0000
  H   H2        1.0  0.00715  0.36139  0.27946  1.0000
  C   C11       1.0  0.29343  0.00152  0.31316  1.0000
  C   C12       1.0  0.20020  0.99409  0.32753  1.0000
  C   C13       1.0  0.22158  0.98769  0.24402  1.0000
  C   C14       1.0  0.26781  0.99066  0.23680  1.0000
  N   N4        1.0  0.19539  0.97571  0.16987  1.0000
  N   N5        1.0  0.28639  0.97425  0.15680  1.0000
  O   O7        1.0  0.20289  0.93790  0.14202  1.0000
  O   O8        1.0  0.29370  0.00159  0.09662  1.0000
  O   O9        1.0  0.19785  0.00246  0.10672  1.0000
  O   O10       1.0  0.31694  0.94743  0.16546  1.0000
  N   N6        1.0  0.15571  0.99123  0.33472  1.0000
  H   H3        1.0  0.13934  0.99366  0.27929  1.0000
  C   C15       1.0  0.48148  0.01940  0.30891  1.0000
  C   C16       1.0  0.43751  0.00657  0.29227  1.0000
  C   C17       1.0  0.40665  0.03697  0.25794  1.0000
  C   C18       1.0  0.42197  0.07896  0.23577  1.0000
  C   C19       1.0  0.42667  0.46231  0.30504  1.0000
  C   C20       1.0  0.03860  0.07418  0.30516  1.0000
  H   H4        1.0  0.39971  0.10127  0.21411  1.0000
  C   C21       1.0  0.01242  0.48843  0.34268  1.0000
  C   C22       1.0  0.07055  0.43024  0.42595  1.0000
  C   C23       1.0  0.08625  0.47145  0.39943  1.0000
  C   C24       1.0  0.05639  0.50104  0.35918  1.0000
  C   C25       1.0  0.45652  0.43242  0.33942  1.0000
  H   H5        1.0  0.09252  0.40830  0.45070  1.0000
  C   C26       1.0  0.06847  0.04430  0.33951  1.0000
  H   H6        1.0  0.39669  0.45056  0.28859  1.0000
  H   H7        1.0  0.09926  0.05532  0.35158  1.0000
  H   H8        1.0  0.05038  0.10414  0.28870  1.0000
  C   C27       1.0  0.36102  0.02923  0.24967  1.0000
  C   C28       1.0  0.13178  0.47891  0.40761  1.0000
  O   O11       1.0  0.33751  0.05651  0.19712  1.0000
  O   O12       1.0  0.15302  0.45820  0.47475  1.0000
  C   C29       1.0  0.99476  0.22894  0.39627  1.0000
  C   C30       1.0  0.99752  0.27427  0.40286  1.0000
  H   H9        1.0  0.99026  0.28797  0.46312  1.0000
  H   H10       1.0  0.98650  0.21183  0.45238  1.0000
  N   N7        1.0  0.99389  0.16309  0.31324  1.0000
  H   H11       1.0  0.99783  0.14806  0.37010  1.0000
  C   C31       1.0  0.27185  0.00610  0.39586  1.0000
  C   C32       1.0  0.22653  0.00326  0.40254  1.0000
  H   H12       1.0  0.21287  0.01041  0.46289  1.0000
  H   H13       1.0  0.28897  0.01426  0.45203  1.0000
  N   N8        1.0  0.33766  0.00725  0.31270  1.0000
  H   H14       1.0  0.35264  0.00313  0.36961  1.0000
  C   C33       1.0  0.46391  0.59429  0.25832  1.0000
  C   C34       1.0  0.49433  0.56338  0.29241  1.0000
  C   C35       1.0  0.99977  0.94447  0.35918  1.0000
  C   C36       1.0  0.02931  0.91461  0.39957  1.0000
  H   H15       1.0  0.44546  0.90164  0.35156  1.0000
  C   C37       1.0  0.47155  0.63996  0.25028  1.0000
  C   C38       1.0  0.02182  0.86910  0.40773  1.0000
  O   O13       1.0  0.44436  0.66364  0.19790  1.0000
  O   O14       1.0  0.04257  0.84782  0.47479  1.0000
  C   C39       1.0  0.99951  0.70733  0.31365  1.0000
  C   C40       1.0  0.00677  0.80056  0.32783  1.0000
  C   C41       1.0  0.01337  0.77915  0.24444  1.0000
  C   C42       1.0  0.01057  0.73291  0.23733  1.0000
  N   N9        1.0  0.02540  0.80531  0.17027  1.0000
  N   N10       1.0  0.02706  0.71425  0.15749  1.0000
  O   O15       1.0  0.06327  0.79786  0.14270  1.0000
  O   O16       1.0  0.99978  0.70675  0.09728  1.0000
  O   O17       1.0  0.99875  0.80270  0.10695  1.0000
  O   O18       1.0  0.05393  0.68377  0.16646  1.0000
  N   N11       1.0  0.00956  0.84506  0.33495  1.0000
  H   H16       1.0  0.00715  0.86139  0.27946  1.0000
  C   C43       1.0  0.29343  0.50152  0.31316  1.0000
  C   C44       1.0  0.20020  0.49409  0.32753  1.0000
  C   C45       1.0  0.22158  0.48769  0.24402  1.0000
  C   C46       1.0  0.26781  0.49066  0.23680  1.0000
  N   N12       1.0  0.19539  0.47571  0.16987  1.0000
  N   N13       1.0  0.28639  0.47425  0.15680  1.0000
  O   O19       1.0  0.20289  0.43790  0.14202  1.0000
  O   O20       1.0  0.29370  0.50159  0.09662  1.0000
  O   O21       1.0  0.19785  0.50246  0.10672  1.0000
  O   O22       1.0  0.31694  0.44743  0.16546  1.0000
  N   N14       1.0  0.15571  0.49123  0.33472  1.0000
  H   H17       1.0  0.13934  0.49366  0.27929  1.0000
  C   C47       1.0  0.48148  0.51940  0.30891  1.0000
  C   C48       1.0  0.43751  0.50657  0.29227  1.0000
  C   C49       1.0  0.40665  0.53697  0.25794  1.0000
  C   C50       1.0  0.42197  0.57896  0.23577  1.0000
  C   C51       1.0  0.42667  0.96231  0.30504  1.0000
  C   C52       1.0  0.03860  0.57418  0.30516  1.0000
  H   H18       1.0  0.39971  0.60127  0.21411  1.0000
  C   C53       1.0  0.01242  0.98843  0.34268  1.0000
  C   C54       1.0  0.07055  0.93024  0.42595  1.0000
  C   C55       1.0  0.08625  0.97145  0.39943  1.0000
  C   C56       1.0  0.05639  0.00104  0.35918  1.0000
  C   C57       1.0  0.45652  0.93242  0.33942  1.0000
  H   H19       1.0  0.09252  0.90830  0.45070  1.0000
  C   C58       1.0  0.06847  0.54430  0.33951  1.0000
  H   H20       1.0  0.39669  0.95056  0.28859  1.0000
  H   H21       1.0  0.09926  0.55532  0.35158  1.0000
  H   H22       1.0  0.05038  0.60414  0.28870  1.0000
  C   C59       1.0  0.36102  0.52923  0.24967  1.0000
  C   C60       1.0  0.13178  0.97891  0.40761  1.0000
  O   O23       1.0  0.33751  0.55651  0.19712  1.0000
  O   O24       1.0  0.15302  0.95820  0.47475  1.0000
  C   C61       1.0  0.99476  0.72894  0.39627  1.0000
  C   C62       1.0  0.99752  0.77427  0.40286  1.0000
  H   H23       1.0  0.99026  0.78797  0.46312  1.0000
  H   H24       1.0  0.98650  0.71183  0.45238  1.0000
  N   N15       1.0  0.99389  0.66309  0.31324  1.0000
  H   H25       1.0  0.99783  0.64806  0.37010  1.0000
  C   C63       1.0  0.27185  0.50610  0.39586  1.0000
  C   C64       1.0  0.22653  0.50326  0.40254  1.0000
  H   H26       1.0  0.21287  0.51042  0.46289  1.0000
  H   H27       1.0  0.28897  0.51426  0.45203  1.0000
  N   N16       1.0  0.33766  0.50725  0.31270  1.0000
  H   H28       1.0  0.35264  0.50313  0.36961  1.0000
  C   C65       1.0  0.96391  0.09429  0.25832  1.0000
  C   C66       1.0  0.99433  0.06338  0.29241  1.0000
  C   C67       1.0  0.49977  0.44447  0.35918  1.0000
  C   C68       1.0  0.52931  0.41461  0.39957  1.0000
  H   H29       1.0  0.94546  0.40164  0.35156  1.0000
  C   C69       1.0  0.97155  0.13996  0.25028  1.0000
  C   C70       1.0  0.52182  0.36910  0.40773  1.0000
  O   O25       1.0  0.94436  0.16364  0.19790  1.0000
  O   O26       1.0  0.54257  0.34782  0.47479  1.0000
  C   C71       1.0  0.49951  0.20733  0.31365  1.0000
  C   C72       1.0  0.50677  0.30056  0.32783  1.0000
  C   C73       1.0  0.51336  0.27915  0.24444  1.0000
  C   C74       1.0  0.51057  0.23291  0.23733  1.0000
  N   N17       1.0  0.52540  0.30531  0.17027  1.0000
  N   N18       1.0  0.52706  0.21425  0.15749  1.0000
  O   O27       1.0  0.56326  0.29786  0.14270  1.0000
  O   O28       1.0  0.49978  0.20675  0.09728  1.0000
  O   O29       1.0  0.49875  0.30270  0.10695  1.0000
  O   O30       1.0  0.55393  0.18377  0.16646  1.0000
  N   N19       1.0  0.50956  0.34506  0.33495  1.0000
  H   H30       1.0  0.50715  0.36139  0.27946  1.0000
  C   C75       1.0  0.79343  0.00152  0.31316  1.0000
  C   C76       1.0  0.70021  0.99409  0.32753  1.0000
  C   C77       1.0  0.72158  0.98769  0.24402  1.0000
  C   C78       1.0  0.76781  0.99066  0.23680  1.0000
  N   N20       1.0  0.69539  0.97571  0.16987  1.0000
  N   N21       1.0  0.78639  0.97425  0.15680  1.0000
  O   O31       1.0  0.70290  0.93790  0.14202  1.0000
  O   O32       1.0  0.79370  0.00159  0.09662  1.0000
  O   O33       1.0  0.69785  0.00246  0.10672  1.0000
  O   O34       1.0  0.81694  0.94743  0.16546  1.0000
  N   N22       1.0  0.65571  0.99123  0.33472  1.0000
  H   H31       1.0  0.63934  0.99366  0.27929  1.0000
  C   C79       1.0  0.98148  0.01940  0.30891  1.0000
  C   C80       1.0  0.93751  0.00657  0.29227  1.0000
  C   C81       1.0  0.90665  0.03697  0.25794  1.0000
  C   C82       1.0  0.92197  0.07896  0.23577  1.0000
  C   C83       1.0  0.92667  0.46231  0.30504  1.0000
  C   C84       1.0  0.53860  0.07418  0.30516  1.0000
  H   H32       1.0  0.89971  0.10127  0.21411  1.0000
  C   C85       1.0  0.51242  0.48843  0.34268  1.0000
  C   C86       1.0  0.57055  0.43024  0.42595  1.0000
  C   C87       1.0  0.58625  0.47145  0.39943  1.0000
  C   C88       1.0  0.55639  0.50104  0.35918  1.0000
  C   C89       1.0  0.95652  0.43242  0.33942  1.0000
  H   H33       1.0  0.59252  0.40830  0.45070  1.0000
  C   C90       1.0  0.56847  0.04430  0.33951  1.0000
  H   H34       1.0  0.89668  0.45056  0.28859  1.0000
  H   H35       1.0  0.59926  0.05532  0.35158  1.0000
  H   H36       1.0  0.55038  0.10414  0.28870  1.0000
  C   C91       1.0  0.86102  0.02923  0.24967  1.0000
  C   C92       1.0  0.63178  0.47891  0.40761  1.0000
  O   O35       1.0  0.83751  0.05651  0.19712  1.0000
  O   O36       1.0  0.65302  0.45820  0.47475  1.0000
  C   C93       1.0  0.49476  0.22894  0.39627  1.0000
  C   C94       1.0  0.49753  0.27427  0.40286  1.0000
  H   H37       1.0  0.49026  0.28797  0.46312  1.0000
  H   H38       1.0  0.48650  0.21183  0.45238  1.0000
  N   N23       1.0  0.49389  0.16309  0.31324  1.0000
  H   H39       1.0  0.49783  0.14806  0.37010  1.0000
  C   C95       1.0  0.77185  0.00610  0.39586  1.0000
  C   C96       1.0  0.72653  0.00326  0.40254  1.0000
  H   H40       1.0  0.71287  0.01041  0.46289  1.0000
  H   H41       1.0  0.78897  0.01426  0.45203  1.0000
  N   N24       1.0  0.83767  0.00725  0.31270  1.0000
  H   H42       1.0  0.85264  0.00313  0.36961  1.0000
  C   C97       1.0  0.96391  0.59429  0.25832  1.0000
  C   C98       1.0  0.99433  0.56338  0.29241  1.0000
  C   C99       1.0  0.49977  0.94447  0.35918  1.0000
  C   C100      1.0  0.52931  0.91461  0.39957  1.0000
  H   H43       1.0  0.94546  0.90164  0.35156  1.0000
  C   C101      1.0  0.97155  0.63996  0.25028  1.0000
  C   C102      1.0  0.52182  0.86910  0.40773  1.0000
  O   O37       1.0  0.94436  0.66364  0.19790  1.0000
  O   O38       1.0  0.54257  0.84782  0.47479  1.0000
  C   C103      1.0  0.49951  0.70733  0.31365  1.0000
  C   C104      1.0  0.50677  0.80056  0.32783  1.0000
  C   C105      1.0  0.51336  0.77915  0.24444  1.0000
  C   C106      1.0  0.51057  0.73291  0.23733  1.0000
  N   N25       1.0  0.52540  0.80531  0.17027  1.0000
  N   N26       1.0  0.52706  0.71425  0.15749  1.0000
  O   O39       1.0  0.56326  0.79786  0.14270  1.0000
  O   O40       1.0  0.49978  0.70675  0.09728  1.0000
  O   O41       1.0  0.49875  0.80270  0.10695  1.0000
  O   O42       1.0  0.55393  0.68377  0.16646  1.0000
  N   N27       1.0  0.50956  0.84506  0.33495  1.0000
  H   H44       1.0  0.50715  0.86139  0.27946  1.0000
  C   C107      1.0  0.79343  0.50152  0.31316  1.0000
  C   C108      1.0  0.70021  0.49409  0.32753  1.0000
  C   C109      1.0  0.72158  0.48769  0.24402  1.0000
  C   C110      1.0  0.76781  0.49066  0.23680  1.0000
  N   N28       1.0  0.69539  0.47571  0.16987  1.0000
  N   N29       1.0  0.78639  0.47425  0.15680  1.0000
  O   O43       1.0  0.70290  0.43790  0.14202  1.0000
  O   O44       1.0  0.79370  0.50159  0.09662  1.0000
  O   O45       1.0  0.69785  0.50246  0.10672  1.0000
  O   O46       1.0  0.81694  0.44743  0.16546  1.0000
  N   N30       1.0  0.65571  0.49123  0.33472  1.0000
  H   H45       1.0  0.63934  0.49366  0.27929  1.0000
  C   C111      1.0  0.98148  0.51940  0.30891  1.0000
  C   C112      1.0  0.93751  0.50657  0.29227  1.0000
  C   C113      1.0  0.90665  0.53697  0.25794  1.0000
  C   C114      1.0  0.92197  0.57896  0.23577  1.0000
  C   C115      1.0  0.92667  0.96231  0.30504  1.0000
  C   C116      1.0  0.53860  0.57418  0.30516  1.0000
  H   H46       1.0  0.89971  0.60127  0.21411  1.0000
  C   C117      1.0  0.51242  0.98843  0.34268  1.0000
  C   C118      1.0  0.57055  0.93024  0.42595  1.0000
  C   C119      1.0  0.58625  0.97145  0.39943  1.0000
  C   C120      1.0  0.55639  0.00104  0.35918  1.0000
  C   C121      1.0  0.95652  0.93242  0.33942  1.0000
  H   H47       1.0  0.59252  0.90830  0.45070  1.0000
  C   C122      1.0  0.56847  0.54430  0.33951  1.0000
  H   H48       1.0  0.89668  0.95056  0.28859  1.0000
  H   H49       1.0  0.59926  0.55532  0.35158  1.0000
  H   H50       1.0  0.55038  0.60414  0.28870  1.0000
  C   C123      1.0  0.86102  0.52923  0.24967  1.0000
  C   C124      1.0  0.63178  0.97891  0.40761  1.0000
  O   O47       1.0  0.83751  0.55651  0.19712  1.0000
  O   O48       1.0  0.65302  0.95820  0.47475  1.0000
  C   C125      1.0  0.49476  0.72894  0.39627  1.0000
  C   C126      1.0  0.49753  0.77427  0.40286  1.0000
  H   H51       1.0  0.49026  0.78797  0.46312  1.0000
  H   H52       1.0  0.48650  0.71183  0.45238  1.0000
  N   N31       1.0  0.49389  0.66309  0.31324  1.0000
  H   H53       1.0  0.49783  0.64806  0.37010  1.0000
  C   C127      1.0  0.77185  0.50610  0.39586  1.0000
  C   C128      1.0  0.72653  0.50326  0.40254  1.0000
  H   H54       1.0  0.71287  0.51042  0.46289  1.0000
  H   H55       1.0  0.78897  0.51426  0.45203  1.0000
  N   N32       1.0  0.83767  0.50725  0.31270  1.0000
  H   H56       1.0  0.85264  0.50313  0.36961  1.0000
