data_image0
_chemical_formula_structural       C11H6C6H3C6N2C11H6C6H3C6N2C2H2C3H2CHC2H2C3H2CHC2H2C3H2CHC7H6NC7H6NC7H3NH2CHC7H3NH2CHC7H3NH2CH
_chemical_formula_sum              "C102 H63 N9"
_cell_length_a       52.5842
_cell_length_b       52.5953
_cell_length_c       14.9196
_cell_angle_alpha    90
_cell_angle_beta     90
_cell_angle_gamma    119.985

_space_group_name_H-M_alt    "P 1"
_space_group_IT_number       1

loop_
  _space_group_symop_operation_xyz
  'x, y, z'

loop_
  _atom_site_type_symbol
  _atom_site_label
  _atom_site_symmetry_multiplicity
  _atom_site_fract_x
  _atom_site_fract_y
  _atom_site_fract_z
  _atom_site_occupancy
  C   C1        1.0  0.22265  0.61214  0.34078  1.0000
  C   C2        1.0  0.39431  0.61158  0.33941  1.0000
  C   C3        1.0  0.39512  0.78410  0.33954  1.0000
  C   C4        1.0  0.42480  0.57956  0.33873  1.0000
  C   C5        1.0  0.39631  0.56738  0.30138  1.0000
  C   C6        1.0  0.38123  0.58322  0.30146  1.0000
  C   C7        1.0  0.17622  0.61169  0.32251  1.0000
  C   C8        1.0  0.20713  0.62700  0.32208  1.0000
  C   C9        1.0  0.42707  0.84660  0.33890  1.0000
  C   C10       1.0  0.43949  0.83032  0.30294  1.0000
  C   C11       1.0  0.42369  0.79941  0.30299  1.0000
  H   H1        1.0  0.38609  0.54673  0.27466  1.0000
  H   H2        1.0  0.36063  0.57373  0.27394  1.0000
  H   H3        1.0  0.21806  0.64905  0.30840  1.0000
  H   H4        1.0  0.16556  0.62311  0.31019  1.0000
  H   H5        1.0  0.46029  0.84078  0.27727  1.0000
  H   H6        1.0  0.43335  0.78833  0.27647  1.0000
  C   C12       1.0  0.35292  0.70048  0.33961  1.0000
  C   C13       1.0  0.32189  0.68487  0.33977  1.0000
  C   C14       1.0  0.30629  0.65385  0.33983  1.0000
  C   C15       1.0  0.32190  0.63843  0.33973  1.0000
  C   C16       1.0  0.35293  0.65384  0.33957  1.0000
  C   C17       1.0  0.36834  0.68486  0.33949  1.0000
  H   H7        1.0  0.31062  0.61587  0.33982  1.0000
  H   H8        1.0  0.31061  0.69615  0.33990  1.0000
  H   H9        1.0  0.39091  0.69614  0.33941  1.0000
  C   C18       1.0  0.38050  0.75543  0.33973  1.0000
  C   C19       1.0  0.36728  0.72917  0.33969  1.0000
  C   C20       1.0  0.38029  0.62624  0.33963  1.0000
  C   C21       1.0  0.36727  0.63948  0.33962  1.0000
  C   C22       1.0  0.27759  0.63949  0.34016  1.0000
  C   C23       1.0  0.25133  0.62635  0.34049  1.0000
  N   N1        1.0  0.44012  0.56562  0.34225  1.0000
  N   N2        1.0  0.44098  0.87584  0.34247  1.0000
  C   C24       1.0  0.78537  0.38956  0.33465  1.0000
  C   C25       1.0  0.61682  0.39668  0.33286  1.0000
  C   C26       1.0  0.61004  0.22138  0.33299  1.0000
  C   C27       1.0  0.58602  0.42832  0.33757  1.0000
  C   C28       1.0  0.61330  0.43997  0.29322  1.0000
  C   C29       1.0  0.62872  0.42446  0.29135  1.0000
  C   C30       1.0  0.83180  0.39018  0.31277  1.0000
  C   C31       1.0  0.80087  0.37501  0.31129  1.0000
  C   C32       1.0  0.57837  0.15896  0.33759  1.0000
  C   C33       1.0  0.56651  0.17462  0.29459  1.0000
  C   C34       1.0  0.58205  0.20555  0.29276  1.0000
  H   H10       1.0  0.62228  0.46003  0.26253  1.0000
  H   H11       1.0  0.64858  0.43362  0.25914  1.0000
  H   H12       1.0  0.78991  0.35335  0.29267  1.0000
  H   H13       1.0  0.84261  0.37924  0.29544  1.0000
  H   H14       1.0  0.54629  0.16358  0.26483  1.0000
  H   H15       1.0  0.57273  0.21626  0.26153  1.0000
  C   C35       1.0  0.65398  0.30493  0.33009  1.0000
  C   C36       1.0  0.68498  0.31927  0.33072  1.0000
  C   C37       1.0  0.70181  0.35025  0.33095  1.0000
  C   C38       1.0  0.68747  0.36691  0.33063  1.0000
  C   C39       1.0  0.65648  0.35276  0.33001  1.0000
  C   C40       1.0  0.63983  0.32177  0.32980  1.0000
  H   H16       1.0  0.69964  0.38944  0.33098  1.0000
  H   H17       1.0  0.69534  0.30709  0.33113  1.0000
  H   H18       1.0  0.61729  0.31141  0.32957  1.0000
  C   C41       1.0  0.62468  0.25004  0.33117  1.0000
  C   C42       1.0  0.63853  0.27628  0.33036  1.0000
  C   C43       1.0  0.63087  0.38206  0.33101  1.0000
  C   C44       1.0  0.64328  0.36822  0.33021  1.0000
  C   C45       1.0  0.73047  0.36342  0.33185  1.0000
  C   C46       1.0  0.75671  0.37571  0.33297  1.0000
  N   N3        1.0  0.57212  0.44367  0.33577  1.0000
  N   N4        1.0  0.56298  0.12972  0.33587  1.0000
  C   C47       1.0  0.52204  0.48610  0.28468  1.0000
  C   C48       1.0  0.53783  0.47125  0.29579  1.0000
  H   H19       1.0  0.51951  0.49190  0.22116  1.0000
  H   H20       1.0  0.54590  0.46642  0.23993  1.0000
  C   C49       1.0  0.45674  0.53240  0.31175  1.0000
  C   C50       1.0  0.44878  0.50438  0.27646  1.0000
  C   C51       1.0  0.46628  0.49150  0.29139  1.0000
  H   H21       1.0  0.42986  0.49282  0.24012  1.0000
  H   H22       1.0  0.45951  0.47101  0.26606  1.0000
  C   C52       1.0  0.43874  0.54434  0.29579  1.0000
  H   H23       1.0  0.42406  0.53588  0.24657  1.0000
  C   C53       1.0  0.52060  0.03723  0.28474  1.0000
  C   C54       1.0  0.53550  0.06787  0.29575  1.0000
  H   H24       1.0  0.51479  0.02889  0.22125  1.0000
  H   H25       1.0  0.54035  0.08076  0.23986  1.0000
  C   C55       1.0  0.47431  0.92568  0.31219  1.0000
  C   C56       1.0  0.50232  0.94571  0.27685  1.0000
  C   C57       1.0  0.51519  0.97609  0.29164  1.0000
  H   H26       1.0  0.51389  0.93836  0.24052  1.0000
  H   H27       1.0  0.53569  0.98981  0.26628  1.0000
  C   C58       1.0  0.46239  0.89573  0.29638  1.0000
  H   H28       1.0  0.47097  0.88950  0.24754  1.0000
  C   C59       1.0  0.96962  0.48445  0.28550  1.0000
  C   C60       1.0  0.93893  0.46903  0.29544  1.0000
  H   H29       1.0  0.97819  0.48681  0.22238  1.0000
  H   H30       1.0  0.92619  0.46101  0.23922  1.0000
  C   C61       1.0  0.08109  0.55049  0.31762  1.0000
  C   C62       1.0  0.06102  0.55831  0.28143  1.0000
  C   C63       1.0  0.03059  0.54051  0.29454  1.0000
  H   H31       1.0  0.06838  0.57736  0.24583  1.0000
  H   H32       1.0  0.01687  0.54723  0.26877  1.0000
  C   C64       1.0  0.11114  0.56908  0.30452  1.0000
  H   H33       1.0  0.11760  0.58589  0.26246  1.0000
  C   C65       1.0  0.42258  0.62375  0.37766  1.0000
  C   C66       1.0  0.43754  0.60777  0.37758  1.0000
  C   C67       1.0  0.20680  0.58183  0.36048  1.0000
  C   C68       1.0  0.17586  0.56664  0.36113  1.0000
  C   C69       1.0  0.16016  0.58122  0.34111  1.0000
  C   C70       1.0  0.38272  0.80017  0.37645  1.0000
  C   C71       1.0  0.39866  0.83109  0.37644  1.0000
  H   H34       1.0  0.45799  0.61703  0.40583  1.0000
  H   H35       1.0  0.21749  0.57052  0.37481  1.0000
  H   H36       1.0  0.16484  0.54468  0.37575  1.0000
  H   H37       1.0  0.36209  0.78964  0.40388  1.0000
  H   H38       1.0  0.38923  0.84227  0.40372  1.0000
  H   H39       1.0  0.43254  0.64422  0.40608  1.0000
  N   N5        1.0  0.13092  0.56561  0.34425  1.0000
  C   C72       1.0  0.58929  0.38464  0.37586  1.0000
  C   C73       1.0  0.57403  0.40028  0.37786  1.0000
  C   C74       1.0  0.80124  0.41947  0.35919  1.0000
  C   C75       1.0  0.83213  0.43449  0.36102  1.0000
  C   C76       1.0  0.84778  0.41992  0.33898  1.0000
  C   C77       1.0  0.62227  0.20585  0.37468  1.0000
  C   C78       1.0  0.60661  0.17497  0.37663  1.0000
  H   H40       1.0  0.55391  0.39087  0.40817  1.0000
  H   H41       1.0  0.79059  0.43068  0.37558  1.0000
  H   H42       1.0  0.84314  0.45626  0.37774  1.0000
  H   H43       1.0  0.64268  0.21675  0.40357  1.0000
  H   H44       1.0  0.61617  0.16424  0.40595  1.0000
  H   H45       1.0  0.57996  0.36440  0.40570  1.0000
  N   N6        1.0  0.87701  0.43344  0.33776  1.0000
  C   C79       1.0  0.54161  0.46229  0.38169  1.0000
  C   C80       1.0  0.52933  0.46914  0.45586  1.0000
  C   C81       1.0  0.51310  0.48388  0.44631  1.0000
  C   C82       1.0  0.50946  0.49255  0.35888  1.0000
  C   C83       1.0  0.49239  0.50623  0.34217  1.0000
  C   C84       1.0  0.50076  0.53440  0.37638  1.0000
  C   C85       1.0  0.48315  0.54724  0.36168  1.0000
  H   H46       1.0  0.51967  0.54570  0.41287  1.0000
  H   H47       1.0  0.48992  0.56763  0.38776  1.0000
  H   H48       1.0  0.53153  0.46250  0.51856  1.0000
  N   N7        1.0  0.50072  0.48804  0.52101  1.0000
  H   H49       1.0  0.50313  0.48143  0.57972  1.0000
  H   H50       1.0  0.48813  0.49659  0.51819  1.0000
  C   C86       1.0  0.55528  0.44569  0.39456  1.0000
  H   H51       1.0  0.55187  0.43489  0.45216  1.0000
  C   C87       1.0  0.54449  0.08062  0.38160  1.0000
  C   C88       1.0  0.53764  0.06152  0.45584  1.0000
  C   C89       1.0  0.52287  0.03056  0.44638  1.0000
  C   C90       1.0  0.51415  0.01823  0.35900  1.0000
  C   C91       1.0  0.50047  0.98749  0.34237  1.0000
  C   C92       1.0  0.47229  0.96770  0.37663  1.0000
  C   C93       1.0  0.45947  0.93726  0.36206  1.0000
  H   H52       1.0  0.46100  0.97532  0.41313  1.0000
  H   H53       1.0  0.43908  0.92365  0.38821  1.0000
  H   H54       1.0  0.54431  0.07038  0.51851  1.0000
  N   N8        1.0  0.51869  0.01405  0.52114  1.0000
  H   H55       1.0  0.52538  0.02309  0.57978  1.0000
  H   H56       1.0  0.51016  0.99291  0.51835  1.0000
  C   C94       1.0  0.56118  0.11089  0.39434  1.0000
  H   H57       1.0  0.57222  0.11827  0.45159  1.0000
  C   C95       1.0  0.92593  0.46573  0.38066  1.0000
  C   C96       1.0  0.94474  0.47801  0.45546  1.0000
  C   C97       1.0  0.97574  0.49385  0.44706  1.0000
  C   C98       1.0  0.98837  0.49711  0.36025  1.0000
  C   C99       1.0  0.01914  0.51424  0.34447  1.0000
  C   C100      1.0  0.03894  0.50598  0.37951  1.0000
  C   C101      1.0  0.06943  0.52387  0.36654  1.0000
  H   H58       1.0  0.03129  0.48702  0.41576  1.0000
  H   H59       1.0  0.08304  0.51725  0.39372  1.0000
  H   H60       1.0  0.93563  0.47615  0.51758  1.0000
  N   N9        1.0  0.99202  0.50627  0.52215  1.0000
  H   H61       1.0  0.98279  0.50419  0.58033  1.0000
  H   H62       1.0  0.01322  0.51863  0.52002  1.0000
  C   C102      1.0  0.89571  0.45291  0.39174  1.0000
  H   H63       1.0  0.88829  0.45906  0.44409  1.0000
