data_image0
_chemical_formula_structural       N2C2NC2NC2NC2NC2NC2N2CHNCHNCHC3NC18H12CNCNCNC18H12CNCNCNC18H12CNCNCNC18H12NCHNCHNCHC2NC2NC2NC2NC2NC2N
_chemical_formula_sum              "N30 C114 H54"
_cell_length_a       44.7213
_cell_length_b       44.7212
_cell_length_c       14.9927
_cell_angle_alpha    90
_cell_angle_beta     90
_cell_angle_gamma    120

_space_group_name_H-M_alt    "P 1"
_space_group_IT_number       1

loop_
  _space_group_symop_operation_xyz
  'x, y, z'

loop_
  _atom_site_type_symbol
  _atom_site_label
  _atom_site_symmetry_multiplicity
  _atom_site_fract_x
  _atom_site_fract_y
  _atom_site_fract_z
  _atom_site_occupancy
  N   N1        1.0  0.00959  0.97894  0.33589  1.0000
  N   N2        1.0  0.00958  0.03077  0.33589  1.0000
  C   C1        1.0  0.17497  0.08754  0.32937  1.0000
  C   C2        1.0  0.24675  0.12338  0.33380  1.0000
  N   N3        1.0  0.22941  0.11472  0.25503  1.0000
  C   C3        1.0  0.19441  0.09724  0.24924  1.0000
  C   C4        1.0  0.18073  0.09041  0.16999  1.0000
  N   N4        1.0  0.16856  0.08433  0.10016  1.0000
  C   C5        1.0  0.90098  0.08755  0.32938  1.0000
  C   C6        1.0  0.86513  0.12348  0.33380  1.0000
  N   N5        1.0  0.87379  0.11480  0.25503  1.0000
  C   C7        1.0  0.89127  0.09728  0.24924  1.0000
  C   C8        1.0  0.89810  0.09044  0.16999  1.0000
  N   N6        1.0  0.90419  0.08435  0.10016  1.0000
  C   C9        1.0  0.90096  0.81355  0.32937  1.0000
  C   C10       1.0  0.86502  0.74177  0.33379  1.0000
  N   N7        1.0  0.87370  0.75912  0.25503  1.0000
  C   C11       1.0  0.89123  0.79411  0.24924  1.0000
  C   C12       1.0  0.89807  0.80779  0.16998  1.0000
  N   N8        1.0  0.90416  0.81996  0.10016  1.0000
  N   N9        1.0  0.57645  0.13333  0.25933  1.0000
  C   C13       1.0  0.54521  0.13129  0.25423  1.0000
  H   H1        1.0  0.53711  0.13531  0.19395  1.0000
  N   N10       1.0  0.85520  0.44326  0.25940  1.0000
  C   C14       1.0  0.85719  0.41404  0.25425  1.0000
  H   H2        1.0  0.85329  0.40205  0.19380  1.0000
  N   N11       1.0  0.54525  0.41207  0.25931  1.0000
  C   C15       1.0  0.57445  0.44330  0.25400  1.0000
  H   H3        1.0  0.58643  0.45138  0.19354  1.0000
  C   C16       1.0  0.97448  0.96056  0.33594  1.0000
  C   C17       1.0  0.02796  0.01404  0.33594  1.0000
  C   C18       1.0  0.97448  0.01404  0.33594  1.0000
  N   N12       1.0  0.95775  0.97894  0.33589  1.0000
  C   C19       1.0  0.06482  0.03247  0.33538  1.0000
  C   C20       1.0  0.08381  0.01484  0.33482  1.0000
  C   C21       1.0  0.12014  0.03295  0.33341  1.0000
  C   C22       1.0  0.13856  0.06934  0.33259  1.0000
  C   C23       1.0  0.12014  0.08731  0.33341  1.0000
  C   C24       1.0  0.08381  0.06909  0.33483  1.0000
  C   C25       1.0  0.95605  0.92371  0.33539  1.0000
  C   C26       1.0  0.97368  0.90471  0.33484  1.0000
  C   C27       1.0  0.95557  0.86838  0.33342  1.0000
  C   C28       1.0  0.91918  0.84996  0.33260  1.0000
  C   C29       1.0  0.90121  0.86838  0.33342  1.0000
  C   C30       1.0  0.91943  0.90472  0.33482  1.0000
  C   C31       1.0  0.95605  0.03247  0.33538  1.0000
  C   C32       1.0  0.91943  0.01484  0.33483  1.0000
  C   C33       1.0  0.90121  0.03295  0.33343  1.0000
  C   C34       1.0  0.91918  0.06934  0.33260  1.0000
  C   C35       1.0  0.95557  0.08731  0.33342  1.0000
  C   C36       1.0  0.97368  0.06909  0.33483  1.0000
  H   H4        1.0  0.96914  0.85552  0.33250  1.0000
  H   H5        1.0  0.00008  0.91709  0.33504  1.0000
  H   H6        1.0  0.87477  0.85553  0.33250  1.0000
  H   H7        1.0  0.90541  0.91709  0.33504  1.0000
  H   H8        1.0  0.90541  0.98844  0.33505  1.0000
  H   H9        1.0  0.87477  0.01937  0.33251  1.0000
  H   H10       1.0  0.00008  0.08311  0.33504  1.0000
  H   H11       1.0  0.96915  0.11374  0.33250  1.0000
  H   H12       1.0  0.07143  0.08311  0.33504  1.0000
  H   H13       1.0  0.13300  0.11375  0.33250  1.0000
  H   H14       1.0  0.13299  0.01937  0.33250  1.0000
  H   H15       1.0  0.07143  0.98844  0.33504  1.0000
  C   C37       1.0  0.44702  0.19659  0.33401  1.0000
  N   N13       1.0  0.41193  0.17978  0.33376  1.0000
  C   C38       1.0  0.39367  0.19674  0.33310  1.0000
  N   N14       1.0  0.41196  0.23196  0.33269  1.0000
  C   C39       1.0  0.44705  0.25022  0.33278  1.0000
  N   N15       1.0  0.46339  0.23158  0.33348  1.0000
  C   C40       1.0  0.35680  0.17833  0.33309  1.0000
  C   C41       1.0  0.33778  0.14170  0.33319  1.0000
  C   C42       1.0  0.30145  0.12350  0.33344  1.0000
  C   C43       1.0  0.28305  0.14150  0.33375  1.0000
  C   C44       1.0  0.30150  0.17789  0.33333  1.0000
  C   C45       1.0  0.33783  0.19598  0.33308  1.0000
  C   C46       1.0  0.46666  0.17938  0.33476  1.0000
  C   C47       1.0  0.45090  0.14285  0.33366  1.0000
  C   C48       1.0  0.47088  0.12643  0.33368  1.0000
  C   C49       1.0  0.50725  0.14626  0.33503  1.0000
  C   C50       1.0  0.52319  0.18258  0.33670  1.0000
  C   C51       1.0  0.50325  0.19878  0.33641  1.0000
  C   C52       1.0  0.46670  0.28706  0.33257  1.0000
  C   C53       1.0  0.50329  0.30422  0.33078  1.0000
  C   C54       1.0  0.52325  0.34035  0.33143  1.0000
  C   C55       1.0  0.50735  0.36075  0.33398  1.0000
  C   C56       1.0  0.47098  0.34425  0.33578  1.0000
  C   C57       1.0  0.45097  0.30785  0.33476  1.0000
  H   H16       1.0  0.45878  0.10004  0.33250  1.0000
  H   H17       1.0  0.42459  0.12772  0.33244  1.0000
  H   H18       1.0  0.54956  0.19767  0.33765  1.0000
  H   H19       1.0  0.51616  0.22518  0.33733  1.0000
  H   H20       1.0  0.51618  0.29071  0.32929  1.0000
  H   H21       1.0  0.54962  0.35162  0.33077  1.0000
  H   H22       1.0  0.42467  0.29668  0.33638  1.0000
  H   H23       1.0  0.45892  0.35855  0.33815  1.0000
  H   H24       1.0  0.35021  0.22237  0.33295  1.0000
  H   H25       1.0  0.28866  0.19149  0.33334  1.0000
  H   H26       1.0  0.28858  0.09707  0.33350  1.0000
  H   H27       1.0  0.35013  0.12766  0.33310  1.0000
  C   C58       1.0  0.79191  0.25053  0.33406  1.0000
  N   N16       1.0  0.80871  0.23224  0.33381  1.0000
  C   C59       1.0  0.79175  0.19702  0.33312  1.0000
  N   N17       1.0  0.75653  0.18009  0.33268  1.0000
  C   C60       1.0  0.73828  0.19692  0.33277  1.0000
  N   N18       1.0  0.75692  0.23191  0.33351  1.0000
  C   C61       1.0  0.81016  0.17857  0.33310  1.0000
  C   C62       1.0  0.84679  0.19617  0.33320  1.0000
  C   C63       1.0  0.86499  0.17804  0.33344  1.0000
  C   C64       1.0  0.84700  0.14165  0.33375  1.0000
  C   C65       1.0  0.81061  0.12370  0.33333  1.0000
  C   C66       1.0  0.79251  0.14194  0.33308  1.0000
  C   C67       1.0  0.80913  0.28737  0.33482  1.0000
  C   C68       1.0  0.84566  0.30813  0.33372  1.0000
  C   C69       1.0  0.86209  0.34453  0.33370  1.0000
  C   C70       1.0  0.84227  0.36108  0.33503  1.0000
  C   C71       1.0  0.80595  0.34071  0.33671  1.0000
  C   C72       1.0  0.78974  0.30457  0.33646  1.0000
  C   C73       1.0  0.70143  0.17973  0.33254  1.0000
  C   C74       1.0  0.68427  0.19916  0.33070  1.0000
  C   C75       1.0  0.64814  0.18300  0.33130  1.0000
  C   C76       1.0  0.62774  0.14668  0.33389  1.0000
  C   C77       1.0  0.64425  0.12684  0.33577  1.0000
  C   C78       1.0  0.68065  0.14322  0.33476  1.0000
  H   H28       1.0  0.88848  0.35881  0.33247  1.0000
  H   H29       1.0  0.86078  0.29694  0.33248  1.0000
  H   H30       1.0  0.79087  0.35200  0.33762  1.0000
  H   H31       1.0  0.76333  0.29108  0.33738  1.0000
  H   H32       1.0  0.69778  0.22556  0.32918  1.0000
  H   H33       1.0  0.63687  0.19809  0.33063  1.0000
  H   H34       1.0  0.69182  0.12808  0.33644  1.0000
  H   H35       1.0  0.62994  0.10046  0.33819  1.0000
  H   H36       1.0  0.76612  0.12793  0.33296  1.0000
  H   H37       1.0  0.79701  0.09726  0.33334  1.0000
  H   H38       1.0  0.89143  0.19161  0.33351  1.0000
  H   H39       1.0  0.86083  0.22257  0.33312  1.0000
  C   C79       1.0  0.73795  0.54150  0.33415  1.0000
  N   N19       1.0  0.75623  0.57659  0.33388  1.0000
  C   C80       1.0  0.79145  0.59486  0.33316  1.0000
  N   N20       1.0  0.80838  0.57657  0.33271  1.0000
  C   C81       1.0  0.79155  0.54148  0.33281  1.0000
  N   N21       1.0  0.75657  0.52513  0.33358  1.0000
  C   C82       1.0  0.80991  0.63172  0.33312  1.0000
  C   C83       1.0  0.79231  0.65074  0.33321  1.0000
  C   C84       1.0  0.81044  0.68708  0.33344  1.0000
  C   C85       1.0  0.84684  0.70547  0.33374  1.0000
  C   C86       1.0  0.86478  0.68702  0.33333  1.0000
  C   C87       1.0  0.84653  0.65069  0.33309  1.0000
  C   C88       1.0  0.70111  0.52188  0.33490  1.0000
  C   C89       1.0  0.68035  0.53765  0.33378  1.0000
  C   C90       1.0  0.64394  0.51767  0.33371  1.0000
  C   C91       1.0  0.62739  0.48130  0.33504  1.0000
  C   C92       1.0  0.64777  0.46535  0.33670  1.0000
  C   C93       1.0  0.68390  0.48528  0.33652  1.0000
  C   C94       1.0  0.80876  0.52184  0.33256  1.0000
  C   C95       1.0  0.78934  0.48525  0.33072  1.0000
  C   C96       1.0  0.80552  0.46530  0.33135  1.0000
  C   C97       1.0  0.84183  0.48122  0.33392  1.0000
  C   C98       1.0  0.86167  0.51758  0.33578  1.0000
  C   C99       1.0  0.84527  0.53758  0.33478  1.0000
  H   H40       1.0  0.62967  0.52978  0.33243  1.0000
  H   H41       1.0  0.69154  0.56395  0.33256  1.0000
  H   H42       1.0  0.63647  0.43898  0.33755  1.0000
  H   H43       1.0  0.69739  0.47237  0.33743  1.0000
  H   H44       1.0  0.76294  0.47236  0.32921  1.0000
  H   H45       1.0  0.79043  0.43893  0.33067  1.0000
  H   H46       1.0  0.86040  0.56389  0.33644  1.0000
  H   H47       1.0  0.88804  0.52965  0.33818  1.0000
  H   H48       1.0  0.86055  0.63831  0.33296  1.0000
  H   H49       1.0  0.89122  0.69986  0.33333  1.0000
  H   H50       1.0  0.79688  0.69995  0.33351  1.0000
  H   H51       1.0  0.76591  0.63840  0.33314  1.0000
  N   N22       1.0  0.19244  0.09626  0.40807  1.0000
  C   C100      1.0  0.22741  0.11373  0.41341  1.0000
  H   H52       1.0  0.23912  0.11957  0.47451  1.0000
  N   N23       1.0  0.89225  0.09629  0.40807  1.0000
  C   C101      1.0  0.87478  0.11379  0.41341  1.0000
  H   H53       1.0  0.86893  0.11966  0.47451  1.0000
  N   N24       1.0  0.89222  0.79609  0.40807  1.0000
  C   C102      1.0  0.87471  0.76111  0.41341  1.0000
  H   H54       1.0  0.86884  0.74940  0.47451  1.0000
  C   C103      1.0  0.59146  0.13204  0.33707  1.0000
  C   C104      1.0  0.52875  0.13157  0.33427  1.0000
  N   N25       1.0  0.54435  0.13167  0.41217  1.0000
  C   C105      1.0  0.57388  0.13017  0.41748  1.0000
  C   C106      1.0  0.58691  0.13249  0.49654  1.0000
  N   N26       1.0  0.59848  0.13456  0.56616  1.0000
  C   C107      1.0  0.85646  0.45959  0.33709  1.0000
  C   C108      1.0  0.85696  0.39725  0.33414  1.0000
  N   N27       1.0  0.85685  0.41278  0.41199  1.0000
  C   C109      1.0  0.85833  0.44380  0.41736  1.0000
  C   C110      1.0  0.85600  0.45446  0.49647  1.0000
  N   N28       1.0  0.85393  0.46393  0.56614  1.0000
  C   C111      1.0  0.52898  0.39701  0.33708  1.0000
  C   C112      1.0  0.59120  0.45982  0.33388  1.0000
  N   N29       1.0  0.57582  0.44426  0.41192  1.0000
  C   C113      1.0  0.54483  0.41469  0.41733  1.0000
  C   C114      1.0  0.53421  0.40170  0.49646  1.0000
  N   N30       1.0  0.52476  0.39016  0.56614  1.0000
