data_image0
_chemical_formula_structural       C18H17C3HCH3C3HCH3C3NC3NC5NC4NC35H25C3HCH3C3HCH3
_chemical_formula_sum              "C84 H58 N4"
_cell_length_a       30.0112
_cell_length_b       30.0109
_cell_length_c       14.8653
_cell_angle_alpha    90
_cell_angle_beta     90
_cell_angle_gamma    89.9285

_space_group_name_H-M_alt    "P 1"
_space_group_IT_number       1

loop_
  _space_group_symop_operation_xyz
  'x, y, z'

loop_
  _atom_site_type_symbol
  _atom_site_label
  _atom_site_symmetry_multiplicity
  _atom_site_fract_x
  _atom_site_fract_y
  _atom_site_fract_z
  _atom_site_occupancy
  C   C1        1.0  0.09760  0.04792  0.34460  1.0000
  C   C2        1.0  0.99469  0.24123  0.26344  1.0000
  C   C3        1.0  0.99446  0.19426  0.26357  1.0000
  C   C4        1.0  0.97082  0.33860  0.29475  1.0000
  C   C5        1.0  0.97075  0.38557  0.29560  1.0000
  C   C6        1.0  0.00306  0.40962  0.34487  1.0000
  C   C7        1.0  0.23840  0.01742  0.26696  1.0000
  C   C8        1.0  0.19143  0.01707  0.26660  1.0000
  C   C9        1.0  0.38216  0.04129  0.31054  1.0000
  C   C10       1.0  0.33518  0.04176  0.31129  1.0000
  C   C11       1.0  0.01437  0.81586  0.26580  1.0000
  C   C12       1.0  0.01547  0.76890  0.26602  1.0000
  C   C13       1.0  0.04108  0.62527  0.30933  1.0000
  C   C14       1.0  0.04096  0.67225  0.31020  1.0000
  C   C15       1.0  0.81268  0.99735  0.26361  1.0000
  C   C16       1.0  0.76571  0.99721  0.26399  1.0000
  C   C17       1.0  0.66891  0.97191  0.29624  1.0000
  C   C18       1.0  0.62195  0.97115  0.29738  1.0000
  H   H1        1.0  0.60573  0.94659  0.26263  1.0000
  H   H2        1.0  0.68522  0.94752  0.26115  1.0000
  H   H3        1.0  0.74951  0.99215  0.20430  1.0000
  H   H4        1.0  0.82915  0.99184  0.20433  1.0000
  H   H5        1.0  0.02272  0.83250  0.20812  1.0000
  H   H6        1.0  0.02409  0.75276  0.20791  1.0000
  H   H7        1.0  0.09202  0.15544  0.34566  1.0000
  H   H8        1.0  0.17495  0.02552  0.20877  1.0000
  H   H9        1.0  0.25469  0.02568  0.20884  1.0000
  H   H10       1.0  0.31906  0.06968  0.28879  1.0000
  H   H11       1.0  0.39871  0.06876  0.28716  1.0000
  H   H12       1.0  0.98904  0.17768  0.20440  1.0000
  H   H13       1.0  0.98990  0.25733  0.20354  1.0000
  H   H14       1.0  0.94634  0.40215  0.26102  1.0000
  H   H15       1.0  0.94611  0.32264  0.26004  1.0000
  H   H16       1.0  0.06873  0.68868  0.28801  1.0000
  H   H17       1.0  0.06879  0.60900  0.28616  1.0000
  C   C19       1.0  0.00333  0.55294  0.33733  1.0000
  C   C20       1.0  0.00923  0.52721  0.25759  1.0000
  C   C21       1.0  0.00951  0.48009  0.26382  1.0000
  H   H18       1.0  0.01423  0.46180  0.20630  1.0000
  C   C22       1.0  0.01340  0.54655  0.16565  1.0000
  H   H19       1.0  0.00769  0.58236  0.16346  1.0000
  H   H20       1.0  0.98893  0.53133  0.12081  1.0000
  H   H21       1.0  0.04670  0.53983  0.13935  1.0000
  C   C23       1.0  0.45410  0.00280  0.33904  1.0000
  C   C24       1.0  0.47987  0.00852  0.25934  1.0000
  C   C25       1.0  0.52698  0.00882  0.26571  1.0000
  H   H22       1.0  0.54530  0.01356  0.20824  1.0000
  C   C26       1.0  0.46058  0.01256  0.16732  1.0000
  H   H23       1.0  0.42479  0.00680  0.16508  1.0000
  H   H24       1.0  0.47592  0.98805  0.12264  1.0000
  H   H25       1.0  0.46719  0.04583  0.14087  1.0000
  C   C27       1.0  0.88636  0.08795  0.34330  1.0000
  C   C28       1.0  0.91884  0.12052  0.34361  1.0000
  C   C29       1.0  0.96053  0.09971  0.34354  1.0000
  N   N1        1.0  0.95162  0.05534  0.34379  1.0000
  C   C30       1.0  0.90728  0.04631  0.34382  1.0000
  C   C31       1.0  0.88467  0.00454  0.34366  1.0000
  C   C32       1.0  0.90639  0.96236  0.34346  1.0000
  N   N2        1.0  0.95068  0.95363  0.34425  1.0000
  C   C33       1.0  0.95947  0.90935  0.34386  1.0000
  C   C34       1.0  0.91797  0.88833  0.34224  1.0000
  C   C35       1.0  0.88539  0.92085  0.34276  1.0000
  C   C36       1.0  0.00171  0.88770  0.34413  1.0000
  C   C37       1.0  0.04340  0.91054  0.34443  1.0000
  N   N3        1.0  0.05233  0.95493  0.34445  1.0000
  C   C38       1.0  0.09669  0.96401  0.34476  1.0000
  C   C39       1.0  0.11758  0.92236  0.34452  1.0000
  C   C40       1.0  0.08512  0.88980  0.34536  1.0000
  C   C41       1.0  0.11939  0.00576  0.34472  1.0000
  N   N4        1.0  0.05331  0.05656  0.34401  1.0000
  C   C42       1.0  0.04446  0.10082  0.34448  1.0000
  C   C43       1.0  0.08590  0.12196  0.34519  1.0000
  C   C44       1.0  0.11851  0.08948  0.34604  1.0000
  C   C45       1.0  0.00223  0.12243  0.34395  1.0000
  C   C46       1.0  0.00185  0.17019  0.34390  1.0000
  C   C47       1.0  0.00962  0.19440  0.42387  1.0000
  C   C48       1.0  0.01022  0.24136  0.42333  1.0000
  C   C49       1.0  0.00276  0.26588  0.34317  1.0000
  C   C50       1.0  0.00319  0.31377  0.34293  1.0000
  C   C51       1.0  0.03598  0.38512  0.39168  1.0000
  C   C52       1.0  0.03583  0.33814  0.39116  1.0000
  C   C53       1.0  0.16721  0.00548  0.34476  1.0000
  C   C54       1.0  0.19140  0.99389  0.42298  1.0000
  C   C55       1.0  0.23837  0.99339  0.42266  1.0000
  C   C56       1.0  0.26281  0.00539  0.34483  1.0000
  C   C57       1.0  0.31054  0.00506  0.34453  1.0000
  C   C58       1.0  0.33479  0.96789  0.37698  1.0000
  C   C59       1.0  0.38174  0.96710  0.37476  1.0000
  C   C60       1.0  0.40632  0.00359  0.34059  1.0000
  C   C61       1.0  0.00223  0.83987  0.34392  1.0000
  C   C62       1.0  0.00358  0.74426  0.34365  1.0000
  C   C63       1.0  0.99098  0.76848  0.42141  1.0000
  C   C64       1.0  0.99075  0.81546  0.42189  1.0000
  C   C65       1.0  0.00388  0.69652  0.34316  1.0000
  C   C66       1.0  0.96693  0.67188  0.37517  1.0000
  C   C67       1.0  0.96673  0.62493  0.37280  1.0000
  C   C68       1.0  0.00361  0.60073  0.33896  1.0000
  C   C69       1.0  0.83690  0.00488  0.34367  1.0000
  C   C70       1.0  0.81282  0.01253  0.42388  1.0000
  C   C71       1.0  0.76584  0.01273  0.42386  1.0000
  C   C72       1.0  0.74118  0.00494  0.34404  1.0000
  C   C73       1.0  0.69327  0.00456  0.34444  1.0000
  C   C74       1.0  0.59742  0.00298  0.34712  1.0000
  C   C75       1.0  0.62144  0.03612  0.39414  1.0000
  C   C76       1.0  0.66842  0.03668  0.39327  1.0000
  H   H26       1.0  0.60481  0.06018  0.42961  1.0000
  H   H27       1.0  0.68437  0.06153  0.42761  1.0000
  H   H28       1.0  0.74975  0.01765  0.48373  1.0000
  H   H29       1.0  0.82939  0.01787  0.48309  1.0000
  H   H30       1.0  0.85290  0.09430  0.34285  1.0000
  H   H31       1.0  0.91241  0.15397  0.34381  1.0000
  H   H32       1.0  0.97428  0.03273  0.34401  1.0000
  H   H33       1.0  0.02965  0.97753  0.34411  1.0000
  H   H34       1.0  0.85192  0.91465  0.34208  1.0000
  H   H35       1.0  0.91176  0.85487  0.34084  1.0000
  H   H36       1.0  0.98195  0.83180  0.47967  1.0000
  H   H37       1.0  0.98269  0.75205  0.47935  1.0000
  H   H38       1.0  0.09167  0.85638  0.34613  1.0000
  H   H39       1.0  0.15102  0.91593  0.34417  1.0000
  H   H40       1.0  0.15195  0.09581  0.34757  1.0000
  H   H41       1.0  0.17489  0.98551  0.48080  1.0000
  H   H42       1.0  0.25466  0.98502  0.48075  1.0000
  H   H43       1.0  0.39793  0.93920  0.39723  1.0000
  H   H44       1.0  0.31837  0.94041  0.40062  1.0000
  H   H45       1.0  0.06049  0.32181  0.42546  1.0000
  H   H46       1.0  0.06033  0.40140  0.42691  1.0000
  H   H47       1.0  0.01543  0.25757  0.48295  1.0000
  H   H48       1.0  0.01505  0.17793  0.48319  1.0000
  H   H49       1.0  0.93919  0.68801  0.39854  1.0000
  H   H50       1.0  0.93897  0.60846  0.39494  1.0000
  C   C77       1.0  0.00274  0.45730  0.34600  1.0000
  C   C78       1.0  0.99562  0.48293  0.42533  1.0000
  C   C79       1.0  0.99673  0.53003  0.41954  1.0000
  H   H51       1.0  0.99221  0.54821  0.47725  1.0000
  C   C80       1.0  0.98529  0.46340  0.51509  1.0000
  H   H52       1.0  0.98129  0.42736  0.51393  1.0000
  H   H53       1.0  0.95416  0.47744  0.54057  1.0000
  H   H54       1.0  0.01200  0.47143  0.56222  1.0000
  C   C81       1.0  0.54974  0.00221  0.34801  1.0000
  C   C82       1.0  0.52406  0.99507  0.42724  1.0000
  C   C83       1.0  0.47696  0.99618  0.42132  1.0000
  H   H55       1.0  0.45874  0.99178  0.47901  1.0000
  C   C84       1.0  0.54355  0.98478  0.51706  1.0000
  H   H56       1.0  0.57961  0.98076  0.51595  1.0000
  H   H57       1.0  0.52957  0.95368  0.54259  1.0000
  H   H58       1.0  0.53546  0.01152  0.56411  1.0000
