data_image0
_chemical_formula_structural       C4HNO2C4HNO2C4HNO2C2H2C2H2C2H2C4HNO2C4HNO2C4HNO2C4HNO2C4HNO2C4HNO2C2H2C2H2C2H2C2H2C2H2C2H2C4HNO2C4HNO2C4HNO2C4HNO2C4HNO2C4HNO2CNCNCNCNCNCNCNCNCNCNCNCNCNCNCNCNCNCNCNCNCNCNCNCNCNCNCNCNCNCNCNCNCNCNCNCNCNCNCNCNCNCNCNCNCNCNCNCNC2H2C2H2C2H2C4HNO2C4HNO2C4HNO2C2H2C2H2C2H2C2H2C2H2C2H2C4HNO2C4HNO2C4HNO2C4HNO2C4HNO2C4HNO2C2H2C2H2C2H2C2H2C2H2C2H2
_chemical_formula_sum              "C192 H72 N72 O48"
_cell_length_a       41.7274
_cell_length_b       41.7274
_cell_length_c       14.8459
_cell_angle_alpha    90
_cell_angle_beta     90
_cell_angle_gamma    120

_space_group_name_H-M_alt    "P 1"
_space_group_IT_number       1

loop_
  _space_group_symop_operation_xyz
  'x, y, z'

loop_
  _atom_site_type_symbol
  _atom_site_label
  _atom_site_symmetry_multiplicity
  _atom_site_fract_x
  _atom_site_fract_y
  _atom_site_fract_z
  _atom_site_occupancy
  C   C1        1.0  0.00683  0.14343  0.33664  1.0000
  C   C2        1.0  0.97546  0.11008  0.30779  1.0000
  C   C3        1.0  0.97464  0.07550  0.30438  1.0000
  C   C4        1.0  0.00594  0.07267  0.33183  1.0000
  H   H1        1.0  0.95244  0.11076  0.28688  1.0000
  N   N1        1.0  0.94293  0.04393  0.26984  1.0000
  O   O1        1.0  0.91446  0.03576  0.31536  1.0000
  O   O2        1.0  0.93702  0.04831  0.18897  1.0000
  C   C5        1.0  0.86955  0.86600  0.33673  1.0000
  C   C6        1.0  0.90295  0.86791  0.30859  1.0000
  C   C7        1.0  0.93755  0.90167  0.30519  1.0000
  C   C8        1.0  0.94034  0.93585  0.33195  1.0000
  H   H2        1.0  0.90231  0.84418  0.28816  1.0000
  N   N2        1.0  0.96918  0.90143  0.27144  1.0000
  O   O3        1.0  0.97725  0.88123  0.31770  1.0000
  O   O4        1.0  0.96497  0.89096  0.19074  1.0000
  C   C9        1.0  0.14701  0.00615  0.33670  1.0000
  C   C10       1.0  0.14507  0.03758  0.30815  1.0000
  C   C11       1.0  0.11131  0.03841  0.30477  1.0000
  C   C12       1.0  0.07715  0.00708  0.33193  1.0000
  H   H3        1.0  0.16878  0.06062  0.28744  1.0000
  N   N3        1.0  0.11150  0.07020  0.27056  1.0000
  O   O5        1.0  0.13176  0.09858  0.31639  1.0000
  O   O6        1.0  0.12186  0.07624  0.18976  1.0000
  C   C13       1.0  0.10522  0.29067  0.32041  1.0000
  C   C14       1.0  0.13459  0.32777  0.31671  1.0000
  H   H4        1.0  0.10776  0.27104  0.28488  1.0000
  H   H5        1.0  0.15747  0.33361  0.27933  1.0000
  C   C15       1.0  0.72230  0.81717  0.32031  1.0000
  C   C16       1.0  0.68518  0.80939  0.31648  1.0000
  H   H6        1.0  0.74190  0.83926  0.28452  1.0000
  H   H7        1.0  0.67934  0.82639  0.27892  1.0000
  C   C17       1.0  0.19585  0.90773  0.32018  1.0000
  C   C18       1.0  0.20359  0.87836  0.31649  1.0000
  H   H8        1.0  0.17369  0.90519  0.28463  1.0000
  H   H9        1.0  0.18655  0.85548  0.27909  1.0000
  C   C19       1.0  0.36045  0.13054  0.33416  1.0000
  C   C20       1.0  0.35059  0.09821  0.28344  1.0000
  C   C21       1.0  0.31355  0.06879  0.27622  1.0000
  C   C22       1.0  0.28451  0.07080  0.32184  1.0000
  H   H10       1.0  0.37077  0.09553  0.25096  1.0000
  N   N4        1.0  0.30541  0.03753  0.22231  1.0000
  O   O7        1.0  0.32218  0.02128  0.24894  1.0000
  O   O8        1.0  0.31339  0.04626  0.14101  1.0000
  C   C23       1.0  0.78046  0.65255  0.33420  1.0000
  C   C24       1.0  0.75796  0.66241  0.28358  1.0000
  C   C25       1.0  0.76560  0.69946  0.27636  1.0000
  C   C26       1.0  0.79666  0.72849  0.32195  1.0000
  H   H11       1.0  0.73509  0.64223  0.25116  1.0000
  N   N5        1.0  0.74247  0.70760  0.22250  1.0000
  O   O9        1.0  0.70945  0.69083  0.24918  1.0000
  O   O10       1.0  0.74319  0.69960  0.14120  1.0000
  C   C27       1.0  0.88245  0.23250  0.33414  1.0000
  C   C28       1.0  0.91480  0.25499  0.28348  1.0000
  C   C29       1.0  0.94422  0.24736  0.27623  1.0000
  C   C30       1.0  0.94219  0.21630  0.32181  1.0000
  H   H12       1.0  0.91748  0.27786  0.25107  1.0000
  N   N6        1.0  0.97549  0.27050  0.22238  1.0000
  O   O11       1.0  0.99173  0.30352  0.24908  1.0000
  O   O12       1.0  0.96677  0.26979  0.14108  1.0000
  C   C31       1.0  0.33897  0.49717  0.33530  1.0000
  C   C32       1.0  0.32180  0.50773  0.26924  1.0000
  C   C33       1.0  0.28283  0.48838  0.25864  1.0000
  C   C34       1.0  0.26035  0.45803  0.31639  1.0000
  H   H13       1.0  0.33772  0.52911  0.22642  1.0000
  N   N7        1.0  0.26612  0.49809  0.18877  1.0000
  O   O13       1.0  0.27591  0.49293  0.11262  1.0000
  O   O14       1.0  0.27403  0.53131  0.19427  1.0000
  C   C35       1.0  0.51589  0.84449  0.33499  1.0000
  C   C36       1.0  0.50499  0.81647  0.26959  1.0000
  C   C37       1.0  0.52424  0.79674  0.25892  1.0000
  C   C38       1.0  0.55485  0.80483  0.31590  1.0000
  H   H14       1.0  0.48337  0.81080  0.22742  1.0000
  N   N8        1.0  0.51409  0.76997  0.18974  1.0000
  O   O15       1.0  0.51888  0.78456  0.11322  1.0000
  O   O16       1.0  0.48088  0.74476  0.19644  1.0000
  C   C39       1.0  0.16848  0.67396  0.33498  1.0000
  C   C40       1.0  0.19658  0.69111  0.26977  1.0000
  C   C41       1.0  0.21630  0.73009  0.25920  1.0000
  C   C42       1.0  0.20818  0.75260  0.31621  1.0000
  H   H15       1.0  0.20225  0.67518  0.22752  1.0000
  N   N9        1.0  0.24309  0.74674  0.19008  1.0000
  O   O17       1.0  0.22853  0.73697  0.11352  1.0000
  O   O18       1.0  0.26830  0.73873  0.19678  1.0000
  C   C43       1.0  0.44576  0.27540  0.32624  1.0000
  C   C44       1.0  0.46291  0.31402  0.31696  1.0000
  H   H16       1.0  0.42188  0.25931  0.29105  1.0000
  H   H17       1.0  0.45035  0.32439  0.27660  1.0000
  C   C45       1.0  0.83987  0.56711  0.32609  1.0000
  C   C46       1.0  0.86135  0.54996  0.31686  1.0000
  H   H18       1.0  0.84769  0.59102  0.29099  1.0000
  H   H19       1.0  0.88426  0.56249  0.27646  1.0000
  C   C47       1.0  0.73762  0.17306  0.32617  1.0000
  C   C48       1.0  0.69900  0.15161  0.31679  1.0000
  H   H20       1.0  0.75371  0.16529  0.29088  1.0000
  H   H21       1.0  0.68862  0.12873  0.27626  1.0000
  C   C49       1.0  0.18675  0.52088  0.29549  1.0000
  C   C50       1.0  0.17949  0.55039  0.29904  1.0000
  H   H22       1.0  0.20754  0.52375  0.25391  1.0000
  H   H23       1.0  0.19469  0.57316  0.25947  1.0000
  C   C51       1.0  0.49216  0.66840  0.29505  1.0000
  C   C52       1.0  0.46263  0.63166  0.29867  1.0000
  H   H24       1.0  0.48940  0.68628  0.25305  1.0000
  H   H25       1.0  0.43993  0.62406  0.25880  1.0000
  C   C53       1.0  0.34465  0.82640  0.29516  1.0000
  C   C54       1.0  0.38139  0.83362  0.29885  1.0000
  H   H26       1.0  0.32676  0.80571  0.25330  1.0000
  H   H27       1.0  0.38899  0.81849  0.25912  1.0000
  C   C55       1.0  0.54866  0.14467  0.33435  1.0000
  C   C56       1.0  0.51489  0.12407  0.28678  1.0000
  C   C57       1.0  0.48569  0.13198  0.29190  1.0000
  C   C58       1.0  0.49006  0.16197  0.34604  1.0000
  H   H28       1.0  0.51110  0.10261  0.24650  1.0000
  N   N10       1.0  0.45281  0.11060  0.24169  1.0000
  O   O19       1.0  0.43652  0.07716  0.26501  1.0000
  O   O20       1.0  0.45899  0.11260  0.15843  1.0000
  C   C59       1.0  0.60636  0.46435  0.33435  1.0000
  C   C60       1.0  0.61954  0.49813  0.28682  1.0000
  C   C61       1.0  0.65667  0.52733  0.29198  1.0000
  C   C62       1.0  0.68227  0.52295  0.34614  1.0000
  H   H29       1.0  0.60189  0.50193  0.24651  1.0000
  N   N11       1.0  0.66817  0.56020  0.24174  1.0000
  O   O21       1.0  0.65103  0.57650  0.26502  1.0000
  O   O22       1.0  0.66401  0.55402  0.15849  1.0000
  C   C63       1.0  0.86825  0.40654  0.33443  1.0000
  C   C64       1.0  0.88884  0.39337  0.28680  1.0000
  C   C65       1.0  0.88093  0.35626  0.29194  1.0000
  C   C66       1.0  0.85099  0.33065  0.34618  1.0000
  H   H30       1.0  0.91028  0.41104  0.24646  1.0000
  N   N12       1.0  0.90231  0.34477  0.24167  1.0000
  O   O23       1.0  0.93576  0.36194  0.26490  1.0000
  O   O24       1.0  0.90026  0.34892  0.15842  1.0000
  C   C67       1.0  0.04861  0.56710  0.32162  1.0000
  C   C68       1.0  0.03014  0.53610  0.26455  1.0000
  C   C69       1.0  0.99125  0.51636  0.25790  1.0000
  C   C70       1.0  0.97042  0.52808  0.31017  1.0000
  H   H31       1.0  0.04496  0.52700  0.22834  1.0000
  N   N13       1.0  0.97356  0.48536  0.19963  1.0000
  O   O25       1.0  0.98166  0.46092  0.21910  1.0000
  O   O26       1.0  0.98208  0.49459  0.11878  1.0000
  C   C71       1.0  0.44580  0.48413  0.32142  1.0000
  C   C72       1.0  0.47681  0.49670  0.26437  1.0000
  C   C73       1.0  0.49654  0.47753  0.25764  1.0000
  C   C74       1.0  0.48481  0.44496  0.30981  1.0000
  H   H32       1.0  0.48590  0.52061  0.22818  1.0000
  N   N14       1.0  0.52756  0.49088  0.19943  1.0000
  O   O27       1.0  0.55199  0.52341  0.21901  1.0000
  O   O28       1.0  0.51835  0.49021  0.11857  1.0000
  C   C75       1.0  0.52890  0.96435  0.32172  1.0000
  C   C76       1.0  0.51634  0.98278  0.26462  1.0000
  C   C77       1.0  0.53550  0.02167  0.25785  1.0000
  C   C78       1.0  0.56806  0.04253  0.31004  1.0000
  H   H33       1.0  0.49241  0.96795  0.22847  1.0000
  N   N15       1.0  0.52216  0.03933  0.19955  1.0000
  O   O29       1.0  0.48962  0.03124  0.21906  1.0000
  O   O30       1.0  0.52285  0.03077  0.11872  1.0000
  C   C79       1.0  0.97483  0.97115  0.33185  1.0000
  N   N16       1.0  0.00883  0.97371  0.33212  1.0000
  C   C80       1.0  0.04186  0.00627  0.33185  1.0000
  N   N17       1.0  0.03931  0.03772  0.33207  1.0000
  C   C81       1.0  0.00675  0.03819  0.33178  1.0000
  N   N18       1.0  0.97530  0.00419  0.33205  1.0000
  C   C82       1.0  0.97414  0.21198  0.33024  1.0000
  N   N19       1.0  0.97489  0.17960  0.32987  1.0000
  C   C83       1.0  0.00701  0.17829  0.33938  1.0000
  N   N20       1.0  0.03913  0.21157  0.35133  1.0000
  C   C84       1.0  0.03979  0.24467  0.35554  1.0000
  N   N21       1.0  0.00694  0.24321  0.34381  1.0000
  C   C85       1.0  0.80097  0.76476  0.33039  1.0000
  N   N22       1.0  0.83336  0.79789  0.33000  1.0000
  C   C86       1.0  0.83468  0.83132  0.33943  1.0000
  N   N23       1.0  0.80141  0.83018  0.35129  1.0000
  C   C87       1.0  0.76830  0.79775  0.35546  1.0000
  N   N24       1.0  0.76974  0.76634  0.34384  1.0000
  C   C88       1.0  0.24825  0.03884  0.33037  1.0000
  N   N25       1.0  0.21512  0.03809  0.32997  1.0000
  C   C89       1.0  0.18169  0.00596  0.33940  1.0000
  N   N26       1.0  0.18284  0.97383  0.35121  1.0000
  C   C90       1.0  0.21528  0.97316  0.35529  1.0000
  N   N27       1.0  0.24668  0.00602  0.34372  1.0000
  C   C91       1.0  0.22150  0.44315  0.32149  1.0000
  N   N28       1.0  0.19589  0.40664  0.33344  1.0000
  C   C92       1.0  0.15929  0.39520  0.34688  1.0000
  N   N29       1.0  0.14948  0.42196  0.35013  1.0000
  C   C93       1.0  0.17423  0.45871  0.33959  1.0000
  N   N30       1.0  0.20990  0.46812  0.32620  1.0000
  C   C94       1.0  0.56978  0.78089  0.32106  1.0000
  N   N31       1.0  0.60629  0.79180  0.33305  1.0000
  C   C95       1.0  0.61775  0.76667  0.34665  1.0000
  N   N32       1.0  0.59102  0.73010  0.35000  1.0000
  C   C96       1.0  0.55426  0.71807  0.33942  1.0000
  N   N33       1.0  0.54484  0.74431  0.32592  1.0000
  C   C97       1.0  0.23213  0.79146  0.32145  1.0000
  N   N34       1.0  0.22121  0.81706  0.33323  1.0000
  C   C98       1.0  0.24634  0.85367  0.34668  1.0000
  N   N35       1.0  0.28291  0.86352  0.34997  1.0000
  C   C99       1.0  0.29495  0.83881  0.33948  1.0000
  N   N36       1.0  0.26872  0.80312  0.32616  1.0000
  C   C100      1.0  0.44746  0.22000  0.37197  1.0000
  N   N37       1.0  0.41077  0.19461  0.36051  1.0000
  C   C101      1.0  0.39871  0.15792  0.34638  1.0000
  N   N38       1.0  0.42507  0.14766  0.34264  1.0000
  C   C102      1.0  0.46191  0.17185  0.35291  1.0000
  N   N39       1.0  0.47189  0.20768  0.36637  1.0000
  C   C103      1.0  0.78289  0.56554  0.37234  1.0000
  N   N40       1.0  0.79419  0.60223  0.36068  1.0000
  C   C104      1.0  0.76957  0.61429  0.34646  1.0000
  N   N41       1.0  0.73296  0.58794  0.34275  1.0000
  C   C105      1.0  0.72029  0.55109  0.35311  1.0000
  N   N42       1.0  0.74614  0.54111  0.36663  1.0000
  C   C106      1.0  0.79302  0.23004  0.37243  1.0000
  N   N43       1.0  0.81840  0.21874  0.36070  1.0000
  C   C107      1.0  0.85508  0.24338  0.34646  1.0000
  N   N44       1.0  0.86532  0.27998  0.34274  1.0000
  C   C108      1.0  0.84114  0.29264  0.35314  1.0000
  N   N45       1.0  0.80532  0.26678  0.36671  1.0000
  C   C109      1.0  0.13864  0.57433  0.34613  1.0000
  N   N46       1.0  0.16137  0.61187  0.34299  1.0000
  C   C110      1.0  0.14693  0.63499  0.33965  1.0000
  N   N47       1.0  0.10969  0.62014  0.33497  1.0000
  C   C111      1.0  0.08687  0.58312  0.33412  1.0000
  N   N48       1.0  0.10175  0.56094  0.34006  1.0000
  C   C112      1.0  0.43859  0.56694  0.34623  1.0000
  N   N49       1.0  0.40105  0.55215  0.34321  1.0000
  C   C113      1.0  0.37794  0.51459  0.33996  1.0000
  N   N50       1.0  0.39276  0.49219  0.33506  1.0000
  C   C114      1.0  0.42979  0.50638  0.33404  1.0000
  N   N51       1.0  0.45198  0.54344  0.34003  1.0000
  C   C115      1.0  0.44612  0.87433  0.34650  1.0000
  N   N52       1.0  0.46092  0.85159  0.34322  1.0000
  C   C116      1.0  0.49848  0.86603  0.33990  1.0000
  N   N53       1.0  0.52086  0.90327  0.33515  1.0000
  C   C117      1.0  0.50667  0.92610  0.33437  1.0000
  N   N54       1.0  0.46961  0.91122  0.34038  1.0000
  C   C118      1.0  0.57553  0.13305  0.33428  1.0000
  N   N55       1.0  0.61273  0.15498  0.34845  1.0000
  C   C119      1.0  0.63605  0.14071  0.34646  1.0000
  N   N56       1.0  0.62113  0.10380  0.33221  1.0000
  C   C120      1.0  0.58449  0.08126  0.31847  1.0000
  N   N57       1.0  0.56266  0.09655  0.32098  1.0000
  C   C121      1.0  0.56787  0.43750  0.33432  1.0000
  N   N58       1.0  0.55258  0.40029  0.34846  1.0000
  C   C122      1.0  0.51499  0.37697  0.34644  1.0000
  N   N59       1.0  0.49301  0.39190  0.33214  1.0000
  C   C123      1.0  0.50712  0.42854  0.31842  1.0000
  N   N60       1.0  0.54424  0.45037  0.32095  1.0000
  C   C124      1.0  0.87989  0.44503  0.33447  1.0000
  N   N61       1.0  0.85796  0.46032  0.34856  1.0000
  C   C125      1.0  0.87224  0.49791  0.34659  1.0000
  N   N62       1.0  0.90916  0.51989  0.33239  1.0000
  C   C126      1.0  0.93170  0.50578  0.31875  1.0000
  N   N63       1.0  0.91639  0.46866  0.32120  1.0000
  C   C127      1.0  0.03747  0.10621  0.35969  1.0000
  C   C128      1.0  0.03794  0.14036  0.36190  1.0000
  H   H34       1.0  0.06082  0.10614  0.38039  1.0000
  H   H35       1.0  0.06156  0.16324  0.38368  1.0000
  C   C129      1.0  0.90676  0.93390  0.35916  1.0000
  C   C130      1.0  0.87259  0.90022  0.36134  1.0000
  H   H36       1.0  0.90678  0.95735  0.37931  1.0000
  H   H37       1.0  0.84967  0.90101  0.38259  1.0000
  C   C131      1.0  0.07914  0.97550  0.35951  1.0000
  C   C132      1.0  0.11281  0.97501  0.36171  1.0000
  H   H38       1.0  0.05570  0.95212  0.38001  1.0000
  H   H39       1.0  0.11206  0.95136  0.38327  1.0000
  C   C133      1.0  0.13166  0.35693  0.35730  1.0000
  C   C134      1.0  0.09900  0.34683  0.40676  1.0000
  C   C135      1.0  0.06952  0.30973  0.41229  1.0000
  C   C136      1.0  0.07171  0.28093  0.36579  1.0000
  H   H40       1.0  0.09620  0.36685  0.43966  1.0000
  N   N64       1.0  0.03804  0.30133  0.46560  1.0000
  O   O31       1.0  0.02196  0.31832  0.43933  1.0000
  O   O32       1.0  0.04640  0.30878  0.54725  1.0000
  C   C137      1.0  0.65603  0.77733  0.35715  1.0000
  C   C138      1.0  0.66614  0.75482  0.40676  1.0000
  C   C139      1.0  0.70324  0.76245  0.41233  1.0000
  C   C140      1.0  0.73204  0.79341  0.36578  1.0000
  H   H41       1.0  0.64612  0.73201  0.43972  1.0000
  N   N65       1.0  0.71166  0.73939  0.46572  1.0000
  O   O33       1.0  0.69467  0.70632  0.43951  1.0000
  O   O34       1.0  0.70420  0.74033  0.54735  1.0000
  C   C141      1.0  0.23568  0.88130  0.35708  1.0000
  C   C142      1.0  0.25821  0.91394  0.40660  1.0000
  C   C143      1.0  0.25060  0.94343  0.41213  1.0000
  C   C144      1.0  0.21963  0.94125  0.36556  1.0000
  H   H42       1.0  0.28103  0.91674  0.43954  1.0000
  N   N66       1.0  0.27366  0.97490  0.46547  1.0000
  O   O35       1.0  0.30674  0.99098  0.43923  1.0000
  O   O36       1.0  0.27274  0.96653  0.54710  1.0000
  C   C145      1.0  0.29396  0.10406  0.36819  1.0000
  C   C146      1.0  0.33108  0.13332  0.37385  1.0000
  H   H43       1.0  0.27412  0.10636  0.40335  1.0000
  H   H44       1.0  0.33672  0.15596  0.41204  1.0000
  C   C147      1.0  0.82046  0.71903  0.36828  1.0000
  C   C148      1.0  0.81263  0.68192  0.37386  1.0000
  H   H45       1.0  0.84267  0.73890  0.40322  1.0000
  H   H46       1.0  0.82965  0.67628  0.41193  1.0000
  C   C149      1.0  0.90892  0.19246  0.36805  1.0000
  C   C150      1.0  0.87966  0.20031  0.37374  1.0000
  H   H47       1.0  0.90661  0.17030  0.40314  1.0000
  H   H48       1.0  0.85701  0.18330  0.41188  1.0000
  C   C151      1.0  0.27777  0.44684  0.38062  1.0000
  C   C152      1.0  0.31652  0.46583  0.38907  1.0000
  H   H49       1.0  0.26238  0.42570  0.42449  1.0000
  H   H50       1.0  0.32820  0.45721  0.43697  1.0000
  C   C153      1.0  0.56644  0.83377  0.37934  1.0000
  C   C154      1.0  0.54748  0.85357  0.38795  1.0000
  H   H51       1.0  0.58774  0.83965  0.42278  1.0000
  H   H52       1.0  0.55635  0.87406  0.43542  1.0000
  C   C155      1.0  0.17921  0.73520  0.37954  1.0000
  C   C156      1.0  0.15936  0.69644  0.38794  1.0000
  H   H53       1.0  0.17325  0.75060  0.42286  1.0000
  H   H54       1.0  0.13881  0.68479  0.43525  1.0000
  C   C157      1.0  0.49751  0.33796  0.35773  1.0000
  C   C158      1.0  0.51357  0.32181  0.41130  1.0000
  C   C159      1.0  0.49646  0.28291  0.42216  1.0000
  C   C160      1.0  0.46245  0.25906  0.37718  1.0000
  H   H55       1.0  0.53800  0.33846  0.44390  1.0000
  N   N67       1.0  0.51285  0.26791  0.47937  1.0000
  O   O37       1.0  0.51391  0.27794  0.55964  1.0000
  O   O38       1.0  0.54515  0.27710  0.45474  1.0000
  C   C161      1.0  0.85071  0.51539  0.35779  1.0000
  C   C162      1.0  0.81854  0.49939  0.41152  1.0000
  C   C163      1.0  0.79679  0.51653  0.42246  1.0000
  C   C164      1.0  0.80692  0.55051  0.37733  1.0000
  H   H56       1.0  0.81080  0.47499  0.44428  1.0000
  N   N68       1.0  0.76547  0.50023  0.47991  1.0000
  O   O39       1.0  0.77455  0.49926  0.56014  1.0000
  O   O40       1.0  0.74230  0.46791  0.45556  1.0000
  C   C165      1.0  0.67507  0.16224  0.35775  1.0000
  C   C166      1.0  0.69121  0.19437  0.41161  1.0000
  C   C167      1.0  0.73010  0.21612  0.42259  1.0000
  C   C168      1.0  0.75394  0.20600  0.37741  1.0000
  H   H57       1.0  0.67455  0.20210  0.44437  1.0000
  N   N69       1.0  0.74512  0.24742  0.48008  1.0000
  O   O41       1.0  0.73506  0.23832  0.56029  1.0000
  O   O42       1.0  0.73595  0.27059  0.45576  1.0000
  C   C169      1.0  0.15004  0.54751  0.35144  1.0000
  C   C170      1.0  0.12908  0.51471  0.40220  1.0000
  C   C171      1.0  0.13645  0.48504  0.40038  1.0000
  C   C172      1.0  0.16531  0.48759  0.34469  1.0000
  H   H58       1.0  0.10785  0.51212  0.44192  1.0000
  N   N70       1.0  0.11607  0.45361  0.45591  1.0000
  O   O43       1.0  0.08209  0.43722  0.43800  1.0000
  O   O44       1.0  0.12046  0.46214  0.53799  1.0000
  C   C173      1.0  0.46543  0.60515  0.35151  1.0000
  C   C174      1.0  0.49814  0.61701  0.40260  1.0000
  C   C175      1.0  0.52784  0.65404  0.40069  1.0000
  C   C176      1.0  0.52538  0.68029  0.34456  1.0000
  H   H59       1.0  0.50065  0.59839  0.44259  1.0000
  N   N71       1.0  0.55919  0.66514  0.45653  1.0000
  O   O45       1.0  0.57558  0.64750  0.43914  1.0000
  O   O46       1.0  0.55055  0.66110  0.53854  1.0000
  C   C177      1.0  0.40790  0.86294  0.35166  1.0000
  C   C178      1.0  0.39602  0.88383  0.40259  1.0000
  C   C179      1.0  0.35900  0.87649  0.40063  1.0000
  C   C180      1.0  0.33274  0.84774  0.34459  1.0000
  H   H60       1.0  0.41463  0.90498  0.44254  1.0000
  N   N72       1.0  0.34790  0.89678  0.45633  1.0000
  O   O47       1.0  0.36551  0.93079  0.43880  1.0000
  O   O48       1.0  0.35194  0.89224  0.53838  1.0000
  C   C181      1.0  0.52433  0.18333  0.39153  1.0000
  C   C182      1.0  0.55307  0.17498  0.38586  1.0000
  H   H61       1.0  0.52845  0.20483  0.43216  1.0000
  H   H62       1.0  0.57669  0.19038  0.42253  1.0000
  C   C183      1.0  0.66934  0.48868  0.39167  1.0000
  C   C184      1.0  0.63224  0.45994  0.38592  1.0000
  H   H63       1.0  0.68671  0.48454  0.43226  1.0000
  H   H64       1.0  0.62401  0.43631  0.42258  1.0000
  C   C185      1.0  0.82963  0.34356  0.39172  1.0000
  C   C186      1.0  0.83798  0.38066  0.38603  1.0000
  H   H65       1.0  0.80816  0.32619  0.43243  1.0000
  H   H66       1.0  0.82259  0.38887  0.42278  1.0000
  C   C187      1.0  0.98917  0.56073  0.36246  1.0000
  C   C188      1.0  0.02796  0.58022  0.36783  1.0000
  H   H67       1.0  0.97481  0.56935  0.40198  1.0000
  H   H68       1.0  0.04071  0.60243  0.41039  1.0000
  C   C189      1.0  0.45212  0.43101  0.36198  1.0000
  C   C190      1.0  0.43267  0.45034  0.36752  1.0000
  H   H69       1.0  0.44356  0.40809  0.40166  1.0000
  H   H70       1.0  0.41047  0.44088  0.41014  1.0000
  C   C191      1.0  0.58198  0.02381  0.36236  1.0000
  C   C192      1.0  0.56269  0.98502  0.36786  1.0000
  H   H71       1.0  0.60497  0.03818  0.40182  1.0000
  H   H72       1.0  0.57216  0.97229  0.41043  1.0000
