data_image0
_chemical_formula_structural       NCHC4OH3C2NC2OH3C2NC2OH3NCHNCHNCHNCHNCHNCHC24H15C24H15C24H15C24H15C24H15C24H15N2CHNCHC2NC2OH3C2NC2OH3C2NC2OH3C2NC2OH3C2NC2OH3C2NC2OH3
_chemical_formula_sum              "N18 C189 H126 O9"
_cell_length_a       61.3694
_cell_length_b       61.3694
_cell_length_c       14.9891
_cell_angle_alpha    90
_cell_angle_beta     90
_cell_angle_gamma    120

_space_group_name_H-M_alt    "P 1"
_space_group_IT_number       1

loop_
  _space_group_symop_operation_xyz
  'x, y, z'

loop_
  _atom_site_type_symbol
  _atom_site_label
  _atom_site_symmetry_multiplicity
  _atom_site_fract_x
  _atom_site_fract_y
  _atom_site_fract_z
  _atom_site_occupancy
  N   N1        1.0  0.01465  0.51048  0.23926  1.0000
  C   C1        1.0  0.01179  0.50694  0.39580  1.0000
  H   H1        1.0  0.01934  0.51011  0.45839  1.0000
  C   C2        1.0  0.97420  0.48990  0.30736  1.0000
  C   C3        1.0  0.02698  0.51546  0.31865  1.0000
  C   C4        1.0  0.98920  0.49825  0.22889  1.0000
  C   C5        1.0  0.97935  0.49316  0.13617  1.0000
  O   O1        1.0  0.96260  0.46693  0.11993  1.0000
  H   H2        1.0  0.99474  0.50020  0.08765  1.0000
  H   H3        1.0  0.96920  0.50320  0.12364  1.0000
  H   H4        1.0  0.97231  0.45815  0.12414  1.0000
  C   C6        1.0  0.51098  0.48453  0.30735  1.0000
  C   C7        1.0  0.48540  0.51174  0.31864  1.0000
  N   N2        1.0  0.49039  0.50439  0.23925  1.0000
  C   C8        1.0  0.50264  0.49120  0.22887  1.0000
  C   C9        1.0  0.50770  0.48640  0.13615  1.0000
  O   O2        1.0  0.53392  0.49586  0.11985  1.0000
  H   H5        1.0  0.50065  0.49473  0.08763  1.0000
  H   H6        1.0  0.49764  0.46621  0.12370  1.0000
  H   H7        1.0  0.54271  0.51435  0.12400  1.0000
  C   C10       1.0  0.51639  0.02661  0.30736  1.0000
  C   C11       1.0  0.48917  0.97382  0.31866  1.0000
  N   N3        1.0  0.49652  0.98616  0.23927  1.0000
  C   C12       1.0  0.50972  0.01160  0.22889  1.0000
  C   C13       1.0  0.51450  0.02145  0.13616  1.0000
  O   O3        1.0  0.50501  0.03819  0.11991  1.0000
  H   H8        1.0  0.50616  0.00606  0.08765  1.0000
  H   H9        1.0  0.53468  0.03159  0.12364  1.0000
  H   H10       1.0  0.48652  0.02848  0.12412  1.0000
  N   N4        1.0  0.25655  0.53946  0.27638  1.0000
  C   C14       1.0  0.27827  0.53910  0.26533  1.0000
  H   H11       1.0  0.28853  0.54679  0.20866  1.0000
  N   N5        1.0  0.46169  0.71742  0.27616  1.0000
  C   C15       1.0  0.46212  0.73954  0.26501  1.0000
  H   H12       1.0  0.45431  0.74205  0.20855  1.0000
  N   N6        1.0  0.28355  0.74431  0.27630  1.0000
  C   C16       1.0  0.26144  0.72261  0.26524  1.0000
  H   H13       1.0  0.25887  0.71235  0.20858  1.0000
  N   N7        1.0  0.74380  0.46132  0.27818  1.0000
  C   C17       1.0  0.72200  0.46147  0.26629  1.0000
  H   H14       1.0  0.71183  0.45356  0.20965  1.0000
  N   N8        1.0  0.53989  0.28284  0.27841  1.0000
  C   C18       1.0  0.53978  0.26090  0.26659  1.0000
  H   H15       1.0  0.54755  0.25858  0.20969  1.0000
  N   N9        1.0  0.71816  0.25709  0.27834  1.0000
  C   C19       1.0  0.74010  0.27891  0.26647  1.0000
  H   H16       1.0  0.74234  0.28908  0.20985  1.0000
  C   C20       1.0  0.17407  0.60904  0.33603  1.0000
  C   C21       1.0  0.14769  0.59522  0.32595  1.0000
  C   C22       1.0  0.13453  0.56856  0.32643  1.0000
  C   C23       1.0  0.14847  0.55595  0.33489  1.0000
  C   C24       1.0  0.17493  0.56936  0.34437  1.0000
  C   C25       1.0  0.18738  0.59593  0.34474  1.0000
  C   C26       1.0  0.10772  0.55482  0.32273  1.0000
  C   C27       1.0  0.09443  0.56015  0.25737  1.0000
  C   C28       1.0  0.06795  0.54698  0.25562  1.0000
  C   C29       1.0  0.05379  0.52839  0.32032  1.0000
  C   C30       1.0  0.06718  0.52303  0.38542  1.0000
  C   C31       1.0  0.09364  0.53590  0.38634  1.0000
  C   C32       1.0  0.18753  0.63567  0.33959  1.0000
  C   C33       1.0  0.19164  0.65007  0.26147  1.0000
  C   C34       1.0  0.20941  0.67599  0.26108  1.0000
  C   C35       1.0  0.22330  0.68824  0.33879  1.0000
  C   C36       1.0  0.21788  0.67390  0.41811  1.0000
  C   C37       1.0  0.20050  0.64795  0.41829  1.0000
  C   C38       1.0  0.18917  0.55691  0.35311  1.0000
  C   C39       1.0  0.20778  0.56438  0.42018  1.0000
  C   C40       1.0  0.22437  0.55487  0.42198  1.0000
  C   C41       1.0  0.22263  0.53722  0.35769  1.0000
  C   C42       1.0  0.20381  0.52941  0.29136  1.0000
  C   C43       1.0  0.18705  0.53883  0.28986  1.0000
  H   H17       1.0  0.21282  0.68562  0.20225  1.0000
  H   H18       1.0  0.18315  0.64150  0.20275  1.0000
  H   H19       1.0  0.22798  0.68171  0.47519  1.0000
  H   H20       1.0  0.19839  0.63785  0.47523  1.0000
  H   H21       1.0  0.21017  0.57770  0.46631  1.0000
  H   H22       1.0  0.23874  0.56222  0.46743  1.0000
  H   H23       1.0  0.17445  0.53369  0.23842  1.0000
  H   H24       1.0  0.20272  0.51744  0.24174  1.0000
  H   H25       1.0  0.10254  0.53171  0.43550  1.0000
  H   H26       1.0  0.05782  0.50937  0.43237  1.0000
  H   H27       1.0  0.05910  0.55158  0.20750  1.0000
  H   H28       1.0  0.10395  0.57359  0.20977  1.0000
  H   H29       1.0  0.13794  0.60472  0.32214  1.0000
  H   H30       1.0  0.20662  0.60601  0.35003  1.0000
  H   H31       1.0  0.13919  0.53668  0.33524  1.0000
  C   C44       1.0  0.39186  0.56529  0.33598  1.0000
  C   C45       1.0  0.40567  0.55272  0.32593  1.0000
  C   C46       1.0  0.43232  0.56620  0.32640  1.0000
  C   C47       1.0  0.44495  0.59276  0.33480  1.0000
  C   C48       1.0  0.43155  0.60583  0.34424  1.0000
  C   C49       1.0  0.40497  0.59172  0.34462  1.0000
  C   C50       1.0  0.44606  0.55314  0.32272  1.0000
  C   C51       1.0  0.44072  0.53450  0.25737  1.0000
  C   C52       1.0  0.45390  0.52120  0.25559  1.0000
  C   C53       1.0  0.47248  0.52562  0.32031  1.0000
  C   C54       1.0  0.47784  0.54437  0.38540  1.0000
  C   C55       1.0  0.46498  0.55796  0.38632  1.0000
  C   C56       1.0  0.36523  0.55213  0.33957  1.0000
  C   C57       1.0  0.35081  0.54183  0.26148  1.0000
  C   C58       1.0  0.32490  0.53369  0.26114  1.0000
  C   C59       1.0  0.31266  0.53535  0.33887  1.0000
  C   C60       1.0  0.32701  0.54426  0.41818  1.0000
  C   C61       1.0  0.35296  0.55283  0.41830  1.0000
  C   C62       1.0  0.44402  0.63252  0.35294  1.0000
  C   C63       1.0  0.43655  0.64370  0.41991  1.0000
  C   C64       1.0  0.44608  0.66980  0.42157  1.0000
  C   C65       1.0  0.46380  0.68569  0.35746  1.0000
  C   C66       1.0  0.47164  0.67465  0.29130  1.0000
  C   C67       1.0  0.46214  0.64846  0.28976  1.0000
  H   H32       1.0  0.31527  0.52749  0.20231  1.0000
  H   H33       1.0  0.35938  0.54192  0.20275  1.0000
  H   H34       1.0  0.31921  0.54657  0.47523  1.0000
  H   H35       1.0  0.36307  0.56083  0.47522  1.0000
  H   H36       1.0  0.42317  0.63277  0.46589  1.0000
  H   H37       1.0  0.43873  0.67684  0.46695  1.0000
  H   H38       1.0  0.46731  0.64098  0.23847  1.0000
  H   H39       1.0  0.48365  0.68551  0.24176  1.0000
  H   H40       1.0  0.46918  0.57107  0.43546  1.0000
  H   H41       1.0  0.49150  0.54867  0.43235  1.0000
  H   H42       1.0  0.44928  0.50774  0.20752  1.0000
  H   H43       1.0  0.42728  0.53059  0.20979  1.0000
  H   H44       1.0  0.39616  0.53347  0.32216  1.0000
  H   H45       1.0  0.39490  0.60088  0.34989  1.0000
  H   H46       1.0  0.46422  0.60275  0.33516  1.0000
  C   C68       1.0  0.43564  0.82673  0.33601  1.0000
  C   C69       1.0  0.44820  0.85310  0.32585  1.0000
  C   C70       1.0  0.43472  0.86627  0.32640  1.0000
  C   C71       1.0  0.40816  0.85234  0.33487  1.0000
  C   C72       1.0  0.39510  0.82587  0.34435  1.0000
  C   C73       1.0  0.40922  0.81342  0.34475  1.0000
  C   C74       1.0  0.44778  0.89308  0.32273  1.0000
  C   C75       1.0  0.46642  0.90637  0.25738  1.0000
  C   C76       1.0  0.47971  0.93285  0.25561  1.0000
  C   C77       1.0  0.47529  0.94701  0.32034  1.0000
  C   C78       1.0  0.45655  0.93363  0.38545  1.0000
  C   C79       1.0  0.44296  0.90716  0.38638  1.0000
  C   C80       1.0  0.44880  0.81326  0.33958  1.0000
  C   C81       1.0  0.45921  0.80926  0.26154  1.0000
  C   C82       1.0  0.46738  0.79151  0.26114  1.0000
  C   C83       1.0  0.46571  0.77758  0.33879  1.0000
  C   C84       1.0  0.45668  0.78291  0.41804  1.0000
  C   C85       1.0  0.44808  0.80025  0.41824  1.0000
  C   C86       1.0  0.36841  0.81164  0.35310  1.0000
  C   C87       1.0  0.35725  0.79304  0.42019  1.0000
  C   C88       1.0  0.33115  0.77645  0.42195  1.0000
  C   C89       1.0  0.31527  0.77820  0.35761  1.0000
  C   C90       1.0  0.32628  0.79704  0.29133  1.0000
  C   C91       1.0  0.35246  0.81376  0.28978  1.0000
  H   H47       1.0  0.47369  0.78817  0.20238  1.0000
  H   H48       1.0  0.45916  0.81779  0.20288  1.0000
  H   H49       1.0  0.45434  0.77275  0.47499  1.0000
  H   H50       1.0  0.43998  0.80226  0.47508  1.0000
  H   H51       1.0  0.36819  0.79061  0.46622  1.0000
  H   H52       1.0  0.32413  0.76205  0.46727  1.0000
  H   H53       1.0  0.35993  0.82641  0.23849  1.0000
  H   H54       1.0  0.31540  0.79815  0.24174  1.0000
  H   H55       1.0  0.42985  0.89826  0.43548  1.0000
  H   H56       1.0  0.45224  0.94298  0.43238  1.0000
  H   H57       1.0  0.49316  0.94170  0.20752  1.0000
  H   H58       1.0  0.47032  0.89685  0.20977  1.0000
  H   H59       1.0  0.46745  0.86284  0.32212  1.0000
  H   H60       1.0  0.40006  0.79418  0.35003  1.0000
  H   H61       1.0  0.39816  0.86162  0.33525  1.0000
  C   C92       1.0  0.82713  0.39299  0.33648  1.0000
  C   C93       1.0  0.85344  0.40698  0.32498  1.0000
  C   C94       1.0  0.86665  0.43368  0.32641  1.0000
  C   C95       1.0  0.85246  0.44603  0.33687  1.0000
  C   C96       1.0  0.82602  0.43247  0.34734  1.0000
  C   C97       1.0  0.81371  0.40592  0.34710  1.0000
  C   C98       1.0  0.89356  0.44771  0.32005  1.0000
  C   C99       1.0  0.90861  0.43966  0.36501  1.0000
  C   C100      1.0  0.93502  0.45350  0.36011  1.0000
  C   C101      1.0  0.94747  0.47594  0.30976  1.0000
  C   C102      1.0  0.93261  0.48441  0.26649  1.0000
  C   C103      1.0  0.90616  0.47045  0.27094  1.0000
  C   C104      1.0  0.81380  0.36635  0.33926  1.0000
  C   C105      1.0  0.80919  0.35208  0.26052  1.0000
  C   C106      1.0  0.79158  0.32612  0.26037  1.0000
  C   C107      1.0  0.77825  0.31370  0.33883  1.0000
  C   C108      1.0  0.78419  0.32794  0.41858  1.0000
  C   C109      1.0  0.80145  0.35391  0.41861  1.0000
  C   C110      1.0  0.81164  0.44477  0.35658  1.0000
  C   C111      1.0  0.79283  0.43699  0.42303  1.0000
  C   C112      1.0  0.77601  0.44623  0.42443  1.0000
  C   C113      1.0  0.77772  0.46390  0.36034  1.0000
  C   C114      1.0  0.79675  0.47205  0.29470  1.0000
  C   C115      1.0  0.81371  0.46288  0.29357  1.0000
  H   H62       1.0  0.78787  0.31658  0.20127  1.0000
  H   H63       1.0  0.81731  0.36076  0.20151  1.0000
  H   H64       1.0  0.77448  0.32005  0.47625  1.0000
  H   H65       1.0  0.80387  0.36392  0.47607  1.0000
  H   H66       1.0  0.79046  0.42361  0.46889  1.0000
  H   H67       1.0  0.76153  0.43868  0.46945  1.0000
  H   H68       1.0  0.82646  0.46825  0.24252  1.0000
  H   H69       1.0  0.79786  0.48409  0.24528  1.0000
  H   H70       1.0  0.89619  0.47711  0.23727  1.0000
  H   H71       1.0  0.94088  0.50117  0.23302  1.0000
  H   H72       1.0  0.94511  0.44690  0.39353  1.0000
  H   H73       1.0  0.90050  0.42380  0.40375  1.0000
  H   H74       1.0  0.86304  0.39747  0.31643  1.0000
  H   H75       1.0  0.79449  0.39572  0.35295  1.0000
  H   H76       1.0  0.86155  0.46526  0.34041  1.0000
  C   C116      1.0  0.60791  0.43440  0.33654  1.0000
  C   C117      1.0  0.59391  0.44671  0.32498  1.0000
  C   C118      1.0  0.56721  0.43321  0.32645  1.0000
  C   C119      1.0  0.55487  0.40668  0.33696  1.0000
  C   C120      1.0  0.56844  0.39382  0.34754  1.0000
  C   C121      1.0  0.59499  0.40806  0.34728  1.0000
  C   C122      1.0  0.55317  0.44609  0.32009  1.0000
  C   C123      1.0  0.56124  0.46920  0.36498  1.0000
  C   C124      1.0  0.54739  0.48177  0.36005  1.0000
  C   C125      1.0  0.52494  0.47176  0.30975  1.0000
  C   C126      1.0  0.51646  0.44842  0.26653  1.0000
  C   C127      1.0  0.53043  0.43595  0.27099  1.0000
  C   C128      1.0  0.63455  0.44772  0.33928  1.0000
  C   C129      1.0  0.64880  0.45737  0.26050  1.0000
  C   C130      1.0  0.67477  0.46572  0.26030  1.0000
  C   C131      1.0  0.68720  0.46481  0.33871  1.0000
  C   C132      1.0  0.67296  0.45648  0.41846  1.0000
  C   C133      1.0  0.64700  0.44780  0.41861  1.0000
  C   C134      1.0  0.55615  0.36714  0.35690  1.0000
  C   C135      1.0  0.56390  0.35615  0.42360  1.0000
  C   C136      1.0  0.55475  0.33011  0.42498  1.0000
  C   C137      1.0  0.53717  0.31412  0.36070  1.0000
  C   C138      1.0  0.52901  0.32495  0.29491  1.0000
  C   C139      1.0  0.53813  0.35107  0.29369  1.0000
  H   H77       1.0  0.68431  0.47158  0.20118  1.0000
  H   H78       1.0  0.64012  0.45681  0.20152  1.0000
  H   H79       1.0  0.68088  0.45474  0.47619  1.0000
  H   H80       1.0  0.63700  0.44024  0.47610  1.0000
  H   H81       1.0  0.57725  0.36719  0.46952  1.0000
  H   H82       1.0  0.56231  0.32322  0.47011  1.0000
  H   H83       1.0  0.53279  0.35844  0.24251  1.0000
  H   H84       1.0  0.51709  0.31402  0.24526  1.0000
  H   H85       1.0  0.52377  0.41930  0.23735  1.0000
  H   H86       1.0  0.49971  0.43993  0.23309  1.0000
  H   H87       1.0  0.55398  0.49846  0.39346  1.0000
  H   H88       1.0  0.57709  0.47696  0.40370  1.0000
  H   H89       1.0  0.60342  0.46582  0.31638  1.0000
  H   H90       1.0  0.60519  0.39904  0.35320  1.0000
  H   H91       1.0  0.53564  0.39654  0.34056  1.0000
  C   C140      1.0  0.56656  0.17368  0.33644  1.0000
  C   C141      1.0  0.55423  0.14737  0.32495  1.0000
  C   C142      1.0  0.56772  0.13415  0.32639  1.0000
  C   C143      1.0  0.59425  0.14834  0.33685  1.0000
  C   C144      1.0  0.60713  0.17477  0.34735  1.0000
  C   C145      1.0  0.59290  0.18709  0.34709  1.0000
  C   C146      1.0  0.55484  0.10724  0.32005  1.0000
  C   C147      1.0  0.53173  0.09220  0.36502  1.0000
  C   C148      1.0  0.51915  0.06578  0.36007  1.0000
  C   C149      1.0  0.52915  0.05333  0.30974  1.0000
  C   C150      1.0  0.55248  0.06819  0.26646  1.0000
  C   C151      1.0  0.56497  0.09464  0.27093  1.0000
  C   C152      1.0  0.55325  0.18702  0.33919  1.0000
  C   C153      1.0  0.54369  0.19171  0.26038  1.0000
  C   C154      1.0  0.53540  0.20937  0.26024  1.0000
  C   C155      1.0  0.53626  0.22266  0.33875  1.0000
  C   C156      1.0  0.54450  0.21666  0.41852  1.0000
  C   C157      1.0  0.55316  0.19935  0.41858  1.0000
  C   C158      1.0  0.63381  0.18915  0.35664  1.0000
  C   C159      1.0  0.64483  0.20794  0.42319  1.0000
  C   C160      1.0  0.67088  0.22477  0.42466  1.0000
  C   C161      1.0  0.68685  0.22312  0.36043  1.0000
  C   C162      1.0  0.67600  0.20411  0.29471  1.0000
  C   C163      1.0  0.64987  0.18713  0.29355  1.0000
  H   H92       1.0  0.52961  0.21312  0.20111  1.0000
  H   H93       1.0  0.54427  0.18362  0.20135  1.0000
  H   H94       1.0  0.54621  0.22627  0.47635  1.0000
  H   H95       1.0  0.56061  0.19681  0.47615  1.0000
  H   H96       1.0  0.63380  0.21029  0.46903  1.0000
  H   H97       1.0  0.67779  0.23926  0.46963  1.0000
  H   H98       1.0  0.64250  0.17440  0.24248  1.0000
  H   H99       1.0  0.68693  0.20304  0.24524  1.0000
  H   H100      1.0  0.58160  0.10461  0.23726  1.0000
  H   H101      1.0  0.56098  0.05992  0.23304  1.0000
  H   H102      1.0  0.50247  0.05569  0.39351  1.0000
  H   H103      1.0  0.52398  0.10031  0.40370  1.0000
  H   H104      1.0  0.53512  0.13777  0.31640  1.0000
  H   H105      1.0  0.60192  0.20631  0.35296  1.0000
  H   H106      1.0  0.60438  0.13924  0.34044  1.0000
  N   N10       1.0  0.98643  0.49468  0.38693  1.0000
  N   N11       1.0  0.50619  0.49198  0.38692  1.0000
  C   C164      1.0  0.49392  0.50506  0.39579  1.0000
  H   H107      1.0  0.49076  0.50946  0.45838  1.0000
  N   N12       1.0  0.50892  0.01437  0.38693  1.0000
  C   C165      1.0  0.49583  0.98902  0.39580  1.0000
  H   H108      1.0  0.49144  0.98146  0.45840  1.0000
  C   C166      1.0  0.24215  0.53132  0.35126  1.0000
  C   C167      1.0  0.28767  0.53127  0.33696  1.0000
  N   N13       1.0  0.27303  0.52296  0.41137  1.0000
  C   C168      1.0  0.25055  0.52200  0.42219  1.0000
  C   C169      1.0  0.23669  0.51137  0.50697  1.0000
  O   O4        1.0  0.21325  0.48866  0.49303  1.0000
  H   H109      1.0  0.23371  0.52517  0.54262  1.0000
  H   H110      1.0  0.24780  0.50650  0.55101  1.0000
  H   H111      1.0  0.20139  0.49286  0.46450  1.0000
  C   C170      1.0  0.46981  0.71113  0.35104  1.0000
  C   C171      1.0  0.46985  0.75671  0.33680  1.0000
  N   N14       1.0  0.47811  0.75035  0.41127  1.0000
  C   C172      1.0  0.47908  0.72883  0.42206  1.0000
  C   C173      1.0  0.48962  0.72555  0.50695  1.0000
  O   O5        1.0  0.51234  0.72481  0.49322  1.0000
  H   H112      1.0  0.47579  0.70875  0.54245  1.0000
  H   H113      1.0  0.49448  0.74152  0.55104  1.0000
  H   H114      1.0  0.50814  0.70875  0.46462  1.0000
  C   C174      1.0  0.28984  0.75872  0.35118  1.0000
  C   C175      1.0  0.24420  0.71323  0.33683  1.0000
  N   N15       1.0  0.25057  0.72787  0.41126  1.0000
  C   C176      1.0  0.27211  0.75033  0.42211  1.0000
  C   C177      1.0  0.27537  0.76418  0.50694  1.0000
  O   O6        1.0  0.27616  0.78765  0.49308  1.0000
  H   H115      1.0  0.29214  0.76712  0.54258  1.0000
  H   H116      1.0  0.25938  0.75309  0.55096  1.0000
  H   H117      1.0  0.29224  0.79950  0.46458  1.0000
  C   C178      1.0  0.75808  0.46961  0.35331  1.0000
  C   C179      1.0  0.71229  0.46913  0.33748  1.0000
  N   N16       1.0  0.72678  0.47751  0.41224  1.0000
  C   C180      1.0  0.74934  0.47870  0.42387  1.0000
  C   C181      1.0  0.76292  0.48928  0.50914  1.0000
  O   O7        1.0  0.78631  0.51212  0.49607  1.0000
  H   H118      1.0  0.76593  0.47551  0.54488  1.0000
  H   H119      1.0  0.75160  0.49397  0.55277  1.0000
  H   H120      1.0  0.79835  0.50807  0.46801  1.0000
  C   C182      1.0  0.53163  0.28883  0.35362  1.0000
  C   C183      1.0  0.53204  0.24349  0.33765  1.0000
  N   N17       1.0  0.52360  0.24956  0.41235  1.0000
  C   C184      1.0  0.52244  0.27094  0.42404  1.0000
  C   C185      1.0  0.51178  0.27389  0.50921  1.0000
  O   O8        1.0  0.48895  0.27444  0.49590  1.0000
  H   H121      1.0  0.52551  0.29065  0.54514  1.0000
  H   H122      1.0  0.50704  0.25784  0.55275  1.0000
  H   H123      1.0  0.49301  0.29054  0.46797  1.0000
  C   C186      1.0  0.71218  0.24279  0.35344  1.0000
  C   C187      1.0  0.75746  0.28862  0.33769  1.0000
  N   N18       1.0  0.75138  0.27411  0.41239  1.0000
  C   C188      1.0  0.73002  0.25153  0.42398  1.0000
  C   C189      1.0  0.72705  0.23794  0.50919  1.0000
  O   O9        1.0  0.72652  0.21457  0.49599  1.0000
  H   H124      1.0  0.71026  0.23489  0.54498  1.0000
  H   H125      1.0  0.74307  0.24926  0.55281  1.0000
  H   H126      1.0  0.71044  0.20252  0.46794  1.0000
