data_image0
_chemical_formula_structural       NC5H3NC5H3NC5H3C5NH3C5NH3C5NH3NC18H12NC18H12NC18H12NC18H12C5NH3C5NH3C5NH3NC5H3NC5H3NC5H3
_chemical_formula_sum              "N16 C132 H84"
_cell_length_a       50.3535
_cell_length_b       50.3535
_cell_length_c       14.802
_cell_angle_alpha    90
_cell_angle_beta     90
_cell_angle_gamma    120

_space_group_name_H-M_alt    "P 1"
_space_group_IT_number       1

loop_
  _space_group_symop_operation_xyz
  'x, y, z'

loop_
  _atom_site_type_symbol
  _atom_site_label
  _atom_site_symmetry_multiplicity
  _atom_site_fract_x
  _atom_site_fract_y
  _atom_site_fract_z
  _atom_site_occupancy
  N   N1        1.0  0.25080  0.12625  0.27286  1.0000
  C   C1        1.0  0.28194  0.14158  0.27013  1.0000
  C   C2        1.0  0.20131  0.10293  0.34606  1.0000
  C   C3        1.0  0.18498  0.10436  0.27035  1.0000
  C   C4        1.0  0.15267  0.08835  0.27112  1.0000
  C   C5        1.0  0.13564  0.06988  0.34555  1.0000
  H   H1        1.0  0.19630  0.11774  0.21577  1.0000
  H   H2        1.0  0.14174  0.09101  0.21666  1.0000
  H   H3        1.0  0.29207  0.14499  0.20822  1.0000
  N   N2        1.0  0.88800  0.13450  0.27410  1.0000
  C   C6        1.0  0.87280  0.15045  0.27133  1.0000
  C   C7        1.0  0.90498  0.10172  0.34213  1.0000
  C   C8        1.0  0.92087  0.10108  0.26402  1.0000
  C   C9        1.0  0.93692  0.08480  0.26454  1.0000
  C   C10       1.0  0.93775  0.06885  0.34238  1.0000
  H   H4        1.0  0.92106  0.11242  0.20647  1.0000
  H   H5        1.0  0.94864  0.08533  0.20750  1.0000
  H   H6        1.0  0.87469  0.16259  0.21405  1.0000
  N   N3        1.0  0.87248  0.75646  0.28218  1.0000
  C   C11       1.0  0.85684  0.72532  0.27923  1.0000
  C   C12       1.0  0.90480  0.80628  0.35026  1.0000
  C   C13       1.0  0.90515  0.82262  0.27203  1.0000
  C   C14       1.0  0.92127  0.85493  0.27206  1.0000
  C   C15       1.0  0.93739  0.87192  0.34945  1.0000
  H   H7        1.0  0.89379  0.81134  0.21465  1.0000
  H   H8        1.0  0.92062  0.86597  0.21479  1.0000
  H   H9        1.0  0.84478  0.71502  0.22189  1.0000
  C   C16       1.0  0.52445  0.18541  0.33221  1.0000
  C   C17       1.0  0.53607  0.17855  0.25382  1.0000
  C   C18       1.0  0.56332  0.17716  0.25625  1.0000
  C   C19       1.0  0.57935  0.18210  0.33858  1.0000
  C   C20       1.0  0.65315  0.18921  0.27262  1.0000
  N   N4        1.0  0.62565  0.18807  0.27196  1.0000
  H   H10       1.0  0.66552  0.19531  0.21403  1.0000
  H   H11       1.0  0.52468  0.17427  0.19362  1.0000
  H   H12       1.0  0.57095  0.17210  0.19828  1.0000
  C   C21       1.0  0.82324  0.34230  0.33286  1.0000
  C   C22       1.0  0.82966  0.36087  0.25483  1.0000
  C   C23       1.0  0.83089  0.38941  0.25835  1.0000
  C   C24       1.0  0.82615  0.40031  0.34134  1.0000
  C   C25       1.0  0.81880  0.46702  0.27715  1.0000
  N   N5        1.0  0.82004  0.44072  0.27589  1.0000
  H   H13       1.0  0.81278  0.47344  0.21869  1.0000
  H   H14       1.0  0.83369  0.35386  0.19408  1.0000
  H   H15       1.0  0.83560  0.40214  0.20055  1.0000
  C   C26       1.0  0.66573  0.48434  0.33674  1.0000
  C   C27       1.0  0.64732  0.47238  0.25834  1.0000
  C   C28       1.0  0.61879  0.44504  0.26117  1.0000
  C   C29       1.0  0.60774  0.42923  0.34384  1.0000
  C   C30       1.0  0.54177  0.35499  0.27777  1.0000
  N   N6        1.0  0.56795  0.38262  0.27736  1.0000
  H   H16       1.0  0.53580  0.34260  0.21923  1.0000
  H   H17       1.0  0.65446  0.48353  0.19780  1.0000
  H   H18       1.0  0.60619  0.43712  0.20311  1.0000
  N   N7        1.0  0.00382  0.00345  0.35003  1.0000
  C   C31       1.0  0.03644  0.01986  0.34879  1.0000
  C   C32       1.0  0.98754  0.97081  0.34983  1.0000
  C   C33       1.0  0.98749  0.01973  0.34805  1.0000
  C   C34       1.0  0.98715  0.03658  0.42379  1.0000
  C   C35       1.0  0.97092  0.05264  0.42177  1.0000
  C   C36       1.0  0.95428  0.05240  0.34415  1.0000
  C   C37       1.0  0.95470  0.03528  0.26857  1.0000
  C   C38       1.0  0.97098  0.01923  0.27044  1.0000
  C   C39       1.0  0.05275  0.02602  0.26685  1.0000
  C   C40       1.0  0.08506  0.04197  0.26604  1.0000
  C   C41       1.0  0.10249  0.05316  0.34669  1.0000
  C   C42       1.0  0.08563  0.04707  0.42844  1.0000
  C   C43       1.0  0.05332  0.03049  0.42966  1.0000
  C   C44       1.0  0.98731  0.95409  0.27303  1.0000
  C   C45       1.0  0.97101  0.92179  0.27319  1.0000
  C   C46       1.0  0.95414  0.90491  0.34990  1.0000
  C   C47       1.0  0.95447  0.92196  0.42663  1.0000
  C   C48       1.0  0.97084  0.95430  0.42661  1.0000
  H   H19       1.0  0.09567  0.04488  0.20501  1.0000
  H   H20       1.0  0.04113  0.01874  0.20707  1.0000
  H   H21       1.0  0.04210  0.02635  0.49012  1.0000
  H   H22       1.0  0.09668  0.05507  0.48876  1.0000
  H   H23       1.0  0.99872  0.03720  0.48120  1.0000
  H   H24       1.0  0.97186  0.06504  0.47767  1.0000
  H   H25       1.0  0.99895  0.96536  0.21606  1.0000
  H   H26       1.0  0.97203  0.91071  0.21652  1.0000
  H   H27       1.0  0.94222  0.91097  0.48320  1.0000
  H   H28       1.0  0.97046  0.96585  0.48300  1.0000
  H   H29       1.0  0.97071  0.00706  0.21477  1.0000
  H   H30       1.0  0.94261  0.03382  0.21144  1.0000
  N   N8        1.0  0.43162  0.21794  0.34589  1.0000
  C   C49       1.0  0.44907  0.25037  0.35648  1.0000
  C   C50       1.0  0.39896  0.20154  0.34698  1.0000
  C   C51       1.0  0.44927  0.20317  0.33505  1.0000
  C   C52       1.0  0.46726  0.20870  0.25663  1.0000
  C   C53       1.0  0.49111  0.20178  0.25439  1.0000
  C   C54       1.0  0.49769  0.18874  0.33007  1.0000
  C   C55       1.0  0.47810  0.18141  0.40614  1.0000
  C   C56       1.0  0.45464  0.18884  0.40911  1.0000
  C   C57       1.0  0.45441  0.26989  0.28200  1.0000
  C   C58       1.0  0.47788  0.30079  0.28443  1.0000
  C   C59       1.0  0.49745  0.31320  0.36047  1.0000
  C   C60       1.0  0.49090  0.29375  0.43656  1.0000
  C   C61       1.0  0.46707  0.26298  0.43482  1.0000
  C   C62       1.0  0.38195  0.20372  0.27452  1.0000
  C   C63       1.0  0.34963  0.18776  0.27606  1.0000
  C   C64       1.0  0.33278  0.16836  0.34918  1.0000
  C   C65       1.0  0.35023  0.16615  0.42112  1.0000
  C   C66       1.0  0.38254  0.18262  0.42056  1.0000
  H   H31       1.0  0.48141  0.31377  0.22775  1.0000
  H   H32       1.0  0.44286  0.26121  0.22278  1.0000
  H   H33       1.0  0.46462  0.24907  0.48832  1.0000
  H   H34       1.0  0.50488  0.30103  0.49203  1.0000
  H   H35       1.0  0.46477  0.22022  0.20336  1.0000
  H   H36       1.0  0.50511  0.20866  0.19897  1.0000
  H   H37       1.0  0.39300  0.21704  0.21977  1.0000
  H   H38       1.0  0.33857  0.19097  0.22292  1.0000
  H   H39       1.0  0.33962  0.15208  0.47502  1.0000
  H   H40       1.0  0.39401  0.18065  0.47470  1.0000
  H   H41       1.0  0.44317  0.18590  0.46850  1.0000
  H   H42       1.0  0.48159  0.17181  0.46252  1.0000
  N   N9        1.0  0.79016  0.21691  0.34230  1.0000
  C   C67       1.0  0.75778  0.20180  0.35324  1.0000
  C   C68       1.0  0.80650  0.20069  0.34332  1.0000
  C   C69       1.0  0.80504  0.24932  0.33194  1.0000
  C   C70       1.0  0.79885  0.26187  0.25495  1.0000
  C   C71       1.0  0.80590  0.29266  0.25402  1.0000
  C   C72       1.0  0.81980  0.31219  0.32938  1.0000
  C   C73       1.0  0.82784  0.29983  0.40371  1.0000
  C   C74       1.0  0.82036  0.26889  0.40541  1.0000
  C   C75       1.0  0.73823  0.18673  0.27951  1.0000
  C   C76       1.0  0.70729  0.17924  0.28144  1.0000
  C   C77       1.0  0.69493  0.18700  0.35636  1.0000
  C   C78       1.0  0.71440  0.20058  0.43201  1.0000
  C   C79       1.0  0.74522  0.20771  0.43073  1.0000
  C   C80       1.0  0.80837  0.18572  0.26510  1.0000
  C   C81       1.0  0.82438  0.16941  0.26625  1.0000
  C   C82       1.0  0.83930  0.16757  0.34539  1.0000
  C   C83       1.0  0.83730  0.18286  0.42343  1.0000
  C   C84       1.0  0.82111  0.19899  0.42259  1.0000
  H   H43       1.0  0.69424  0.16926  0.22525  1.0000
  H   H44       1.0  0.74695  0.18324  0.22123  1.0000
  H   H45       1.0  0.75918  0.21972  0.48358  1.0000
  H   H46       1.0  0.70713  0.20771  0.48657  1.0000
  H   H47       1.0  0.78672  0.24792  0.20223  1.0000
  H   H48       1.0  0.79860  0.29992  0.19984  1.0000
  H   H49       1.0  0.79805  0.18662  0.20663  1.0000
  H   H50       1.0  0.82451  0.15834  0.20844  1.0000
  H   H51       1.0  0.84807  0.18282  0.48200  1.0000
  H   H52       1.0  0.81996  0.20944  0.48046  1.0000
  H   H53       1.0  0.82405  0.26021  0.46343  1.0000
  H   H54       1.0  0.83804  0.31289  0.45974  1.0000
  N   N10       1.0  0.79118  0.57632  0.34894  1.0000
  C   C85       1.0  0.80619  0.55894  0.35973  1.0000
  C   C86       1.0  0.80741  0.60886  0.35039  1.0000
  C   C87       1.0  0.75880  0.55888  0.33785  1.0000
  C   C88       1.0  0.74636  0.54034  0.26046  1.0000
  C   C89       1.0  0.71553  0.51668  0.25884  1.0000
  C   C90       1.0  0.69587  0.51097  0.33391  1.0000
  C   C91       1.0  0.70812  0.53121  0.40861  1.0000
  C   C92       1.0  0.73909  0.55456  0.41101  1.0000
  C   C93       1.0  0.82140  0.55465  0.28600  1.0000
  C   C94       1.0  0.82882  0.53114  0.28745  1.0000
  C   C95       1.0  0.82086  0.51079  0.36183  1.0000
  C   C96       1.0  0.80715  0.51649  0.43752  1.0000
  C   C97       1.0  0.80012  0.54025  0.43676  1.0000
  C   C98       1.0  0.82239  0.62583  0.27236  1.0000
  C   C99       1.0  0.83854  0.65815  0.27381  1.0000
  C   C100      1.0  0.84017  0.67477  0.35305  1.0000
  C   C101      1.0  0.82490  0.65737  0.43093  1.0000
  C   C102      1.0  0.80894  0.62505  0.42979  1.0000
  H   H55       1.0  0.83885  0.52818  0.23117  1.0000
  H   H56       1.0  0.82497  0.56699  0.22798  1.0000
  H   H57       1.0  0.78797  0.54204  0.48947  1.0000
  H   H58       1.0  0.79989  0.50193  0.49169  1.0000
  H   H59       1.0  0.76040  0.54220  0.20794  1.0000
  H   H60       1.0  0.70835  0.50223  0.20441  1.0000
  H   H61       1.0  0.82158  0.61469  0.21377  1.0000
  H   H62       1.0  0.84960  0.66945  0.21610  1.0000
  H   H63       1.0  0.82479  0.66808  0.48954  1.0000
  H   H64       1.0  0.79843  0.61336  0.48749  1.0000
  H   H65       1.0  0.74768  0.56679  0.46929  1.0000
  H   H66       1.0  0.69496  0.52828  0.46446  1.0000
  C   C103      1.0  0.29964  0.15177  0.35043  1.0000
  C   C104      1.0  0.28261  0.14463  0.43205  1.0000
  C   C105      1.0  0.25030  0.12822  0.43258  1.0000
  C   C106      1.0  0.23398  0.11908  0.35019  1.0000
  C   C107      1.0  0.15336  0.06903  0.41885  1.0000
  N   N11       1.0  0.18450  0.08517  0.41667  1.0000
  H   H67       1.0  0.14325  0.05585  0.47456  1.0000
  H   H68       1.0  0.29354  0.15192  0.49282  1.0000
  H   H69       1.0  0.23897  0.12394  0.49294  1.0000
  C   C108      1.0  0.85563  0.15088  0.34655  1.0000
  C   C109      1.0  0.85545  0.13382  0.42298  1.0000
  C   C110      1.0  0.87148  0.11754  0.42332  1.0000
  C   C111      1.0  0.88827  0.11783  0.34625  1.0000
  C   C112      1.0  0.92148  0.07020  0.41864  1.0000
  N   N12       1.0  0.90617  0.08602  0.41553  1.0000
  H   H70       1.0  0.92041  0.05889  0.47702  1.0000
  H   H71       1.0  0.84301  0.13250  0.47915  1.0000
  H   H72       1.0  0.87051  0.10539  0.47985  1.0000
  C   C113      1.0  0.85659  0.70779  0.35442  1.0000
  C   C114      1.0  0.87348  0.72474  0.43097  1.0000
  C   C115      1.0  0.88946  0.75707  0.43147  1.0000
  C   C116      1.0  0.88898  0.77347  0.35443  1.0000
  C   C117      1.0  0.93620  0.85451  0.42604  1.0000
  N   N13       1.0  0.92054  0.82336  0.42339  1.0000
  H   H73       1.0  0.94764  0.86493  0.48411  1.0000
  H   H74       1.0  0.87490  0.71369  0.48715  1.0000
  H   H75       1.0  0.90149  0.76831  0.48806  1.0000
  N   N14       1.0  0.56765  0.18856  0.41272  1.0000
  C   C118      1.0  0.54163  0.19031  0.41256  1.0000
  C   C119      1.0  0.60732  0.18169  0.34571  1.0000
  C   C120      1.0  0.61785  0.17601  0.42801  1.0000
  C   C121      1.0  0.64620  0.17683  0.43100  1.0000
  C   C122      1.0  0.66491  0.18374  0.35313  1.0000
  H   H76       1.0  0.60501  0.17097  0.48568  1.0000
  H   H77       1.0  0.65300  0.17221  0.49124  1.0000
  H   H78       1.0  0.53560  0.19641  0.47157  1.0000
  N   N15       1.0  0.82018  0.38209  0.41517  1.0000
  C   C123      1.0  0.81864  0.35441  0.41402  1.0000
  C   C124      1.0  0.82635  0.42858  0.34932  1.0000
  C   C125      1.0  0.83181  0.44453  0.43203  1.0000
  C   C126      1.0  0.83090  0.47200  0.43569  1.0000
  C   C127      1.0  0.82410  0.48401  0.35807  1.0000
  H   H79       1.0  0.83680  0.43660  0.48953  1.0000
  H   H80       1.0  0.83539  0.48325  0.49621  1.0000
  H   H81       1.0  0.81293  0.34219  0.47288  1.0000
  N   N16       1.0  0.62578  0.44132  0.41807  1.0000
  C   C128      1.0  0.65344  0.46748  0.41758  1.0000
  C   C129      1.0  0.57954  0.40107  0.35099  1.0000
  C   C130      1.0  0.56315  0.39048  0.43299  1.0000
  C   C131      1.0  0.53575  0.36200  0.43567  1.0000
  C   C132      1.0  0.52428  0.34320  0.35784  1.0000
  H   H82       1.0  0.57068  0.40341  0.49056  1.0000
  H   H83       1.0  0.52413  0.35520  0.49560  1.0000
  H   H84       1.0  0.66554  0.47386  0.47665  1.0000
