data_image0
_chemical_formula_structural       C2H2C8H2N2O4CHC7H2N2O4CHC7H2N2O4CHC2H2C3H2CHC2H2C3H2CHC2H2C3H2CHC3HN3C6H3N3C6H3N3C6H3N3C2H2C3H2CHC2H2C3H2CHC2H2C3H2CHC7H2N2O4CHC7H2N2O4CHC7H2N2O4CH
_chemical_formula_sum              "C108 H60 N24 O24"
_cell_length_a       45.6134
_cell_length_b       45.6134
_cell_length_c       14.9723
_cell_angle_alpha    90
_cell_angle_beta     90
_cell_angle_gamma    120

_space_group_name_H-M_alt    "P 1"
_space_group_IT_number       1

loop_
  _space_group_symop_operation_xyz
  'x, y, z'

loop_
  _atom_site_type_symbol
  _atom_site_label
  _atom_site_symmetry_multiplicity
  _atom_site_fract_x
  _atom_site_fract_y
  _atom_site_fract_z
  _atom_site_occupancy
  C   C1        1.0  0.01465  0.03451  0.33159  1.0000
  C   C2        1.0  0.01588  0.98182  0.33164  1.0000
  H   H1        1.0  0.02937  0.96942  0.32969  1.0000
  H   H2        1.0  0.02705  0.06040  0.32962  1.0000
  C   C3        1.0  0.03349  0.01754  0.33242  1.0000
  C   C4        1.0  0.30342  0.14551  0.30185  1.0000
  C   C5        1.0  0.28322  0.14067  0.22504  1.0000
  C   C6        1.0  0.24775  0.12629  0.23483  1.0000
  C   C7        1.0  0.23183  0.11614  0.31913  1.0000
  C   C8        1.0  0.19606  0.10148  0.32774  1.0000
  C   C9        1.0  0.17283  0.07200  0.27985  1.0000
  C   C10       1.0  0.13754  0.05907  0.28999  1.0000
  H   H3        1.0  0.12121  0.03792  0.25456  1.0000
  H   H4        1.0  0.23345  0.12338  0.17928  1.0000
  N   N1        1.0  0.18514  0.05536  0.22442  1.0000
  N   N2        1.0  0.29879  0.15056  0.14001  1.0000
  O   O1        1.0  0.17597  0.05417  0.14471  1.0000
  O   O2        1.0  0.28775  0.12579  0.08747  1.0000
  O   O3        1.0  0.17526  0.02572  0.25091  1.0000
  O   O4        1.0  0.29403  0.17297  0.10559  1.0000
  C   C11       1.0  0.33790  0.15779  0.29481  1.0000
  H   H5        1.0  0.34591  0.14649  0.25240  1.0000
  C   C12       1.0  0.85104  0.15845  0.30200  1.0000
  C   C13       1.0  0.85587  0.14309  0.22516  1.0000
  C   C14       1.0  0.87023  0.12198  0.23491  1.0000
  C   C15       1.0  0.88037  0.11619  0.31920  1.0000
  C   C16       1.0  0.89501  0.09506  0.32776  1.0000
  C   C17       1.0  0.92450  0.10130  0.27986  1.0000
  C   C18       1.0  0.93742  0.07894  0.28998  1.0000
  H   H6        1.0  0.95856  0.08375  0.25455  1.0000
  H   H7        1.0  0.87312  0.11059  0.17934  1.0000
  N   N3        1.0  0.94114  0.13026  0.22445  1.0000
  N   N4        1.0  0.84597  0.14877  0.14015  1.0000
  O   O5        1.0  0.94233  0.12228  0.14473  1.0000
  O   O6        1.0  0.87073  0.16249  0.08759  1.0000
  O   O7        1.0  0.97079  0.15001  0.25095  1.0000
  O   O8        1.0  0.82354  0.12161  0.10575  1.0000
  C   C19       1.0  0.83877  0.18066  0.29500  1.0000
  H   H8        1.0  0.85004  0.19995  0.25253  1.0000
  C   C20       1.0  0.83811  0.69304  0.30188  1.0000
  C   C21       1.0  0.85346  0.71324  0.22506  1.0000
  C   C22       1.0  0.87456  0.74872  0.23484  1.0000
  C   C23       1.0  0.88033  0.76463  0.31914  1.0000
  C   C24       1.0  0.90145  0.80041  0.32774  1.0000
  C   C25       1.0  0.89519  0.82364  0.27985  1.0000
  C   C26       1.0  0.91755  0.85893  0.29000  1.0000
  H   H9        1.0  0.91273  0.87526  0.25458  1.0000
  H   H10       1.0  0.88594  0.76301  0.17928  1.0000
  N   N5        1.0  0.86624  0.81133  0.22442  1.0000
  N   N6        1.0  0.84778  0.69767  0.14003  1.0000
  O   O9        1.0  0.87423  0.82051  0.14471  1.0000
  O   O10       1.0  0.83404  0.70871  0.08750  1.0000
  O   O11       1.0  0.84648  0.82121  0.25091  1.0000
  O   O12       1.0  0.87494  0.70242  0.10561  1.0000
  C   C27       1.0  0.81591  0.65856  0.29486  1.0000
  H   H11       1.0  0.79659  0.65054  0.25250  1.0000
  C   C28       1.0  0.53792  0.15457  0.28336  1.0000
  C   C29       1.0  0.51141  0.16093  0.30212  1.0000
  H   H12       1.0  0.54192  0.15046  0.21840  1.0000
  H   H13       1.0  0.49739  0.16151  0.24949  1.0000
  C   C30       1.0  0.65843  0.16970  0.29522  1.0000
  C   C31       1.0  0.64559  0.18771  0.24816  1.0000
  C   C32       1.0  0.61294  0.18208  0.26518  1.0000
  H   H14       1.0  0.66049  0.20637  0.20373  1.0000
  H   H15       1.0  0.60550  0.19707  0.23280  1.0000
  C   C33       1.0  0.69216  0.17896  0.28325  1.0000
  H   H16       1.0  0.70320  0.18961  0.22533  1.0000
  C   C34       1.0  0.84163  0.38380  0.28330  1.0000
  C   C35       1.0  0.83528  0.35093  0.30199  1.0000
  H   H17       1.0  0.84566  0.39188  0.21833  1.0000
  H   H18       1.0  0.83450  0.33627  0.24926  1.0000
  C   C36       1.0  0.82719  0.48955  0.29526  1.0000
  C   C37       1.0  0.80897  0.45868  0.24842  1.0000
  C   C38       1.0  0.81438  0.43152  0.26555  1.0000
  H   H19       1.0  0.79026  0.45499  0.20424  1.0000
  H   H20       1.0  0.79924  0.40910  0.23336  1.0000
  C   C39       1.0  0.81821  0.51421  0.28312  1.0000
  H   H21       1.0  0.80795  0.51487  0.22479  1.0000
  C   C40       1.0  0.61277  0.45844  0.28337  1.0000
  C   C41       1.0  0.64564  0.48495  0.30211  1.0000
  H   H22       1.0  0.60468  0.45443  0.21841  1.0000
  H   H23       1.0  0.66027  0.49895  0.24947  1.0000
  C   C42       1.0  0.50729  0.33802  0.29534  1.0000
  C   C43       1.0  0.53814  0.35080  0.24835  1.0000
  C   C44       1.0  0.56520  0.38343  0.26536  1.0000
  H   H24       1.0  0.54188  0.33587  0.20397  1.0000
  H   H25       1.0  0.58763  0.39083  0.23302  1.0000
  C   C45       1.0  0.48275  0.30432  0.28331  1.0000
  H   H26       1.0  0.48230  0.29334  0.22524  1.0000
  C   C46       1.0  0.97893  0.01640  0.33234  1.0000
  C   C47       1.0  0.98007  0.96297  0.33245  1.0000
  C   C48       1.0  0.96196  0.98059  0.33164  1.0000
  H   H27       1.0  0.93607  0.96710  0.32967  1.0000
  N   N7        1.0  0.96316  0.03433  0.33002  1.0000
  N   N8        1.0  0.06719  0.03331  0.33005  1.0000
  N   N9        1.0  0.96213  0.92928  0.33009  1.0000
  C   C49       1.0  0.44607  0.19759  0.34868  1.0000
  C   C50       1.0  0.41046  0.18061  0.34253  1.0000
  C   C51       1.0  0.39291  0.19896  0.34154  1.0000
  C   C52       1.0  0.41155  0.23471  0.34647  1.0000
  C   C53       1.0  0.44725  0.25206  0.34801  1.0000
  C   C54       1.0  0.46415  0.23331  0.34963  1.0000
  H   H28       1.0  0.39920  0.24827  0.34607  1.0000
  H   H29       1.0  0.49010  0.24591  0.35093  1.0000
  H   H30       1.0  0.39725  0.15471  0.34090  1.0000
  N   N10       1.0  0.46287  0.18071  0.34678  1.0000
  N   N11       1.0  0.35930  0.18385  0.33956  1.0000
  N   N12       1.0  0.46589  0.28559  0.34987  1.0000
  C   C55       1.0  0.79885  0.24894  0.34880  1.0000
  C   C56       1.0  0.81586  0.23034  0.34273  1.0000
  C   C57       1.0  0.79754  0.19444  0.34160  1.0000
  C   C58       1.0  0.76179  0.17729  0.34642  1.0000
  C   C59       1.0  0.74440  0.19560  0.34791  1.0000
  C   C60       1.0  0.76312  0.23126  0.34960  1.0000
  H   H31       1.0  0.74826  0.15138  0.34603  1.0000
  H   H32       1.0  0.75050  0.24458  0.35082  1.0000
  H   H33       1.0  0.84176  0.24305  0.34109  1.0000
  N   N13       1.0  0.81570  0.28263  0.34687  1.0000
  N   N14       1.0  0.81269  0.17596  0.33969  1.0000
  N   N15       1.0  0.71087  0.18068  0.34970  1.0000
  C   C61       1.0  0.74763  0.55036  0.34877  1.0000
  C   C62       1.0  0.76622  0.58597  0.34256  1.0000
  C   C63       1.0  0.80213  0.60355  0.34158  1.0000
  C   C64       1.0  0.81927  0.58495  0.34656  1.0000
  C   C65       1.0  0.80096  0.54926  0.34821  1.0000
  C   C66       1.0  0.76531  0.53231  0.34980  1.0000
  H   H34       1.0  0.84519  0.59733  0.34616  1.0000
  H   H35       1.0  0.75199  0.50637  0.35111  1.0000
  H   H36       1.0  0.75352  0.59916  0.34089  1.0000
  N   N16       1.0  0.71395  0.53354  0.34685  1.0000
  N   N17       1.0  0.82061  0.63717  0.33956  1.0000
  N   N18       1.0  0.81586  0.53063  0.35006  1.0000
  C   C67       1.0  0.25236  0.12143  0.39492  1.0000
  C   C68       1.0  0.28761  0.13581  0.38643  1.0000
  H   H37       1.0  0.24169  0.11420  0.45697  1.0000
  H   H38       1.0  0.30156  0.13853  0.44265  1.0000
  C   C69       1.0  0.12460  0.07475  0.34681  1.0000
  C   C70       1.0  0.14814  0.10390  0.39433  1.0000
  C   C71       1.0  0.18317  0.11695  0.38524  1.0000
  H   H39       1.0  0.14001  0.11619  0.43606  1.0000
  H   H40       1.0  0.19927  0.13840  0.41998  1.0000
  C   C72       1.0  0.09005  0.06300  0.35569  1.0000
  H   H41       1.0  0.08279  0.07797  0.38469  1.0000
  C   C73       1.0  0.87510  0.13143  0.39501  1.0000
  C   C74       1.0  0.86075  0.15233  0.38656  1.0000
  H   H42       1.0  0.88233  0.12797  0.45705  1.0000
  H   H43       1.0  0.85802  0.16354  0.44280  1.0000
  C   C75       1.0  0.92173  0.05031  0.34678  1.0000
  C   C76       1.0  0.89257  0.04470  0.39431  1.0000
  C   C77       1.0  0.87954  0.06669  0.38524  1.0000
  H   H44       1.0  0.88029  0.02429  0.43604  1.0000
  H   H45       1.0  0.85809  0.06135  0.42001  1.0000
  C   C78       1.0  0.93347  0.02751  0.35567  1.0000
  H   H46       1.0  0.91849  0.00527  0.38459  1.0000
  C   C79       1.0  0.86509  0.74411  0.39493  1.0000
  C   C80       1.0  0.84421  0.70885  0.38645  1.0000
  H   H47       1.0  0.86853  0.75478  0.45698  1.0000
  H   H48       1.0  0.83300  0.69491  0.44268  1.0000
  C   C81       1.0  0.94617  0.87187  0.34683  1.0000
  C   C82       1.0  0.95179  0.84833  0.39434  1.0000
  C   C83       1.0  0.92980  0.81330  0.38524  1.0000
  H   H49       1.0  0.97220  0.85646  0.43607  1.0000
  H   H50       1.0  0.93516  0.79720  0.41998  1.0000
  C   C84       1.0  0.96897  0.90642  0.35573  1.0000
  H   H51       1.0  0.99120  0.91368  0.38468  1.0000
  C   C85       1.0  0.50638  0.16960  0.38944  1.0000
  C   C86       1.0  0.52763  0.16970  0.45926  1.0000
  C   C87       1.0  0.55435  0.16340  0.43914  1.0000
  C   C88       1.0  0.56052  0.15675  0.35103  1.0000
  C   C89       1.0  0.59166  0.15804  0.32937  1.0000
  C   C90       1.0  0.60386  0.13900  0.37549  1.0000
  C   C91       1.0  0.63701  0.14501  0.35782  1.0000
  H   H52       1.0  0.64576  0.13164  0.39274  1.0000
  H   H53       1.0  0.57096  0.16630  0.48893  1.0000
  N   N19       1.0  0.58261  0.11409  0.43798  1.0000
  N   N20       1.0  0.52302  0.17758  0.54794  1.0000
  O   O13       1.0  0.59561  0.12020  0.51461  1.0000
  O   O14       1.0  0.54855  0.20395  0.57610  1.0000
  O   O15       1.0  0.57656  0.08513  0.41461  1.0000
  O   O16       1.0  0.51665  0.15363  0.60052  1.0000
  C   C92       1.0  0.48540  0.18335  0.40331  1.0000
  H   H54       1.0  0.49085  0.19935  0.45421  1.0000
  C   C93       1.0  0.82669  0.33724  0.38936  1.0000
  C   C94       1.0  0.82672  0.35843  0.45926  1.0000
  C   C95       1.0  0.83304  0.39145  0.43920  1.0000
  C   C96       1.0  0.83962  0.40427  0.35109  1.0000
  C   C97       1.0  0.83846  0.43420  0.32949  1.0000
  C   C98       1.0  0.85768  0.46544  0.37548  1.0000
  C   C99       1.0  0.85185  0.49269  0.35779  1.0000
  H   H55       1.0  0.86538  0.51484  0.39252  1.0000
  H   H56       1.0  0.83031  0.40524  0.48910  1.0000
  N   N21       1.0  0.88259  0.46899  0.43780  1.0000
  N   N22       1.0  0.81893  0.34594  0.54795  1.0000
  O   O17       1.0  0.87662  0.47599  0.51445  1.0000
  O   O18       1.0  0.79262  0.34515  0.57640  1.0000
  O   O19       1.0  0.91158  0.49177  0.41422  1.0000
  O   O20       1.0  0.84295  0.36349  0.60035  1.0000
  C   C100      1.0  0.81287  0.30250  0.40304  1.0000
  H   H57       1.0  0.79680  0.29196  0.45381  1.0000
  C   C101      1.0  0.65934  0.49002  0.38946  1.0000
  C   C102      1.0  0.63817  0.46879  0.45930  1.0000
  C   C103      1.0  0.60515  0.44208  0.43920  1.0000
  C   C104      1.0  0.59234  0.43589  0.35108  1.0000
  C   C105      1.0  0.56247  0.40475  0.32947  1.0000
  C   C106      1.0  0.53123  0.39261  0.37553  1.0000
  C   C107      1.0  0.50405  0.35948  0.35786  1.0000
  H   H58       1.0  0.48192  0.35077  0.39271  1.0000
  H   H59       1.0  0.59142  0.42549  0.48903  1.0000
  N   N23       1.0  0.52759  0.41390  0.43793  1.0000
  N   N24       1.0  0.65065  0.47344  0.54800  1.0000
  O   O21       1.0  0.52067  0.40092  0.51458  1.0000
  O   O22       1.0  0.65147  0.44791  0.57628  1.0000
  O   O23       1.0  0.50473  0.42000  0.41446  1.0000
  O   O24       1.0  0.63308  0.47985  0.60049  1.0000
  C   C108      1.0  0.69407  0.51099  0.40334  1.0000
  H   H60       1.0  0.70460  0.50554  0.45424  1.0000
