data_image0
_chemical_formula_structural       C8H8C3H2CHC3H2CHC3NC3NC5NC5NC20H18N4C3H2CHC3H2CH
_chemical_formula_sum              "C60 H38 N8"
_cell_length_a       25.7248
_cell_length_b       25.7226
_cell_length_c       14.7209
_cell_angle_alpha    90
_cell_angle_beta     90
_cell_angle_gamma    90.0299

_space_group_name_H-M_alt    "P 1"
_space_group_IT_number       1

loop_
  _space_group_symop_operation_xyz
  'x, y, z'

loop_
  _atom_site_type_symbol
  _atom_site_label
  _atom_site_symmetry_multiplicity
  _atom_site_fract_x
  _atom_site_fract_y
  _atom_site_fract_z
  _atom_site_occupancy
  C   C1        1.0  0.23023  0.00064  0.28697  1.0000
  C   C2        1.0  0.28502  0.00074  0.28572  1.0000
  C   C3        1.0  0.00096  0.78990  0.28710  1.0000
  C   C4        1.0  0.00081  0.73511  0.28571  1.0000
  C   C5        1.0  0.73462  0.01961  0.29606  1.0000
  C   C6        1.0  0.78938  0.01958  0.29517  1.0000
  C   C7        1.0  0.01977  0.23051  0.29523  1.0000
  C   C8        1.0  0.02006  0.28529  0.29597  1.0000
  H   H1        1.0  0.02859  0.30436  0.23695  1.0000
  H   H2        1.0  0.02776  0.21142  0.23581  1.0000
  H   H3        1.0  0.80839  0.02808  0.23588  1.0000
  H   H4        1.0  0.71547  0.02842  0.23725  1.0000
  H   H5        1.0  0.99323  0.80974  0.22834  1.0000
  H   H6        1.0  0.99293  0.71645  0.22582  1.0000
  H   H7        1.0  0.30375  0.99320  0.22577  1.0000
  H   H8        1.0  0.21047  0.99305  0.22807  1.0000
  C   C9        1.0  0.01288  0.49359  0.27956  1.0000
  C   C10       1.0  0.01299  0.54700  0.30092  1.0000
  C   C11       1.0  0.01171  0.45505  0.34834  1.0000
  H   H9        1.0  0.01414  0.57318  0.24861  1.0000
  H   H10       1.0  0.01387  0.48313  0.21243  1.0000
  C   C12       1.0  0.01236  0.40238  0.32466  1.0000
  H   H11       1.0  0.01531  0.39319  0.25929  1.0000
  C   C13       1.0  0.52641  0.01225  0.28000  1.0000
  C   C14       1.0  0.47301  0.01241  0.30139  1.0000
  C   C15       1.0  0.56496  0.01096  0.34874  1.0000
  H   H12       1.0  0.44682  0.01364  0.24909  1.0000
  H   H13       1.0  0.53685  0.01329  0.21286  1.0000
  C   C16       1.0  0.61762  0.01159  0.32500  1.0000
  H   H14       1.0  0.62677  0.01473  0.25964  1.0000
  C   C17       1.0  0.10626  0.14489  0.37369  1.0000
  C   C18       1.0  0.14442  0.10718  0.37176  1.0000
  C   C19       1.0  0.12038  0.05844  0.37151  1.0000
  N   N1        1.0  0.06858  0.06860  0.37240  1.0000
  C   C20       1.0  0.05781  0.12028  0.37343  1.0000
  C   C21       1.0  0.00895  0.14644  0.37451  1.0000
  C   C22       1.0  0.95987  0.12094  0.37458  1.0000
  N   N2        1.0  0.95003  0.06925  0.37407  1.0000
  C   C23       1.0  0.89846  0.05879  0.37433  1.0000
  C   C24       1.0  0.87360  0.10705  0.37532  1.0000
  C   C25       1.0  0.91132  0.14523  0.37474  1.0000
  C   C26       1.0  0.87356  0.00940  0.37431  1.0000
  C   C27       1.0  0.90029  0.96086  0.37337  1.0000
  N   N3        1.0  0.95209  0.95073  0.37248  1.0000
  C   C28       1.0  0.96286  0.89906  0.37108  1.0000
  C   C29       1.0  0.91442  0.87442  0.37157  1.0000
  C   C30       1.0  0.87625  0.91213  0.37231  1.0000
  C   C31       1.0  0.01170  0.87291  0.36996  1.0000
  C   C32       1.0  0.06079  0.89838  0.37022  1.0000
  N   N4        1.0  0.07063  0.95007  0.37068  1.0000
  C   C33       1.0  0.12220  0.96052  0.36995  1.0000
  C   C34       1.0  0.14706  0.91225  0.36956  1.0000
  C   C35       1.0  0.10933  0.87408  0.36902  1.0000
  C   C36       1.0  0.14711  0.00991  0.36999  1.0000
  C   C37       1.0  0.20277  0.01061  0.36831  1.0000
  C   C38       1.0  0.31396  0.01080  0.36535  1.0000
  C   C39       1.0  0.28630  0.02125  0.44653  1.0000
  C   C40       1.0  0.23153  0.02092  0.44809  1.0000
  C   C41       1.0  0.01155  0.81725  0.36831  1.0000
  C   C42       1.0  0.01127  0.70607  0.36507  1.0000
  C   C43       1.0  0.02229  0.73363  0.44614  1.0000
  C   C44       1.0  0.02220  0.78839  0.44784  1.0000
  C   C45       1.0  0.81789  0.00862  0.37496  1.0000
  C   C46       1.0  0.79016  0.99745  0.45555  1.0000
  C   C47       1.0  0.73538  0.99721  0.45611  1.0000
  C   C48       1.0  0.70669  0.00819  0.37657  1.0000
  C   C49       1.0  0.00904  0.20211  0.37526  1.0000
  C   C50       1.0  0.99843  0.22997  0.45594  1.0000
  C   C51       1.0  0.00915  0.31333  0.37656  1.0000
  C   C52       1.0  0.99845  0.28476  0.45636  1.0000
  H   H15       1.0  0.99060  0.30378  0.51591  1.0000
  H   H16       1.0  0.99058  0.21049  0.51502  1.0000
  H   H17       1.0  0.11352  0.18396  0.37479  1.0000
  H   H18       1.0  0.18340  0.11489  0.37096  1.0000
  H   H19       1.0  0.04235  0.04206  0.37206  1.0000
  H   H20       1.0  0.97832  0.97728  0.37272  1.0000
  H   H21       1.0  0.90384  0.18426  0.37483  1.0000
  H   H22       1.0  0.83450  0.11407  0.37615  1.0000
  H   H23       1.0  0.80973  0.98953  0.51451  1.0000
  H   H24       1.0  0.71644  0.98907  0.51563  1.0000
  H   H25       1.0  0.83727  0.90443  0.37210  1.0000
  H   H26       1.0  0.90718  0.83535  0.37116  1.0000
  H   H27       1.0  0.18617  0.90524  0.36925  1.0000
  H   H28       1.0  0.11680  0.83506  0.36799  1.0000
  H   H29       1.0  0.03025  0.80713  0.50758  1.0000
  H   H30       1.0  0.03076  0.71422  0.50483  1.0000
  H   H31       1.0  0.21272  0.02839  0.50798  1.0000
  H   H32       1.0  0.30565  0.02935  0.50545  1.0000
  N   N5        1.0  0.01089  0.65423  0.35780  1.0000
  N   N6        1.0  0.65484  0.00814  0.38330  1.0000
  N   N7        1.0  0.00910  0.36519  0.38307  1.0000
  N   N8        1.0  0.36580  0.01045  0.35823  1.0000
  C   C53       1.0  0.01197  0.56428  0.39226  1.0000
  C   C54       1.0  0.01068  0.52573  0.46103  1.0000
  C   C55       1.0  0.01053  0.47233  0.43967  1.0000
  H   H33       1.0  0.01001  0.53618  0.52818  1.0000
  H   H34       1.0  0.00985  0.44616  0.49203  1.0000
  C   C56       1.0  0.01278  0.61691  0.41613  1.0000
  H   H35       1.0  0.01455  0.62597  0.48168  1.0000
  C   C57       1.0  0.45575  0.01133  0.39273  1.0000
  C   C58       1.0  0.49430  0.00992  0.46147  1.0000
  C   C59       1.0  0.54769  0.00972  0.44008  1.0000
  H   H36       1.0  0.48386  0.00919  0.52862  1.0000
  H   H37       1.0  0.57388  0.00895  0.49242  1.0000
  C   C60       1.0  0.40311  0.01214  0.41661  1.0000
  H   H38       1.0  0.39404  0.01370  0.48217  1.0000
