data_image0
_chemical_formula_structural       C4H2C4HNH2C4H2C4HNH2C4H2C4HNH2C4H3NH2C4H3NH2C4H3NH2CNCNCNC18H12CNCNCNC18H12CNCNCNC18H12CNCNCNC18H12C4H3NH2C4H3NH2C4H3NH2C4H2C4HNH2C4H2C4HNH2C4H2C4HNH2
_chemical_formula_sum              "C156 H108 N24"
_cell_length_a       56.6853
_cell_length_b       56.6854
_cell_length_c       14.9879
_cell_angle_alpha    90
_cell_angle_beta     90
_cell_angle_gamma    120

_space_group_name_H-M_alt    "P 1"
_space_group_IT_number       1

loop_
  _space_group_symop_operation_xyz
  'x, y, z'

loop_
  _atom_site_type_symbol
  _atom_site_label
  _atom_site_symmetry_multiplicity
  _atom_site_fract_x
  _atom_site_fract_y
  _atom_site_fract_z
  _atom_site_occupancy
  C   C1        1.0  0.28392  0.14167  0.32943  1.0000
  C   C2        1.0  0.22580  0.11197  0.32944  1.0000
  C   C3        1.0  0.24024  0.13731  0.28531  1.0000
  C   C4        1.0  0.26885  0.15192  0.28542  1.0000
  H   H1        1.0  0.23003  0.14527  0.25198  1.0000
  H   H2        1.0  0.27859  0.16992  0.25112  1.0000
  C   C5        1.0  0.19689  0.09798  0.32574  1.0000
  C   C6        1.0  0.13887  0.06977  0.32879  1.0000
  C   C7        1.0  0.15319  0.06717  0.25566  1.0000
  C   C8        1.0  0.18203  0.08105  0.25247  1.0000
  H   H3        1.0  0.14237  0.05507  0.20298  1.0000
  N   N1        1.0  0.19440  0.07748  0.17999  1.0000
  H   H4        1.0  0.21409  0.08639  0.17488  1.0000
  H   H5        1.0  0.18383  0.06576  0.13071  1.0000
  C   C9        1.0  0.84980  0.14245  0.32940  1.0000
  C   C10       1.0  0.87950  0.11402  0.32942  1.0000
  C   C11       1.0  0.85417  0.10313  0.28529  1.0000
  C   C12       1.0  0.83955  0.11713  0.28540  1.0000
  H   H6        1.0  0.84620  0.08496  0.25196  1.0000
  H   H7        1.0  0.82155  0.10886  0.25110  1.0000
  C   C13       1.0  0.89349  0.09911  0.32573  1.0000
  C   C14       1.0  0.92171  0.06931  0.32881  1.0000
  C   C15       1.0  0.92431  0.08622  0.25567  1.0000
  C   C16       1.0  0.91042  0.10118  0.25247  1.0000
  H   H8        1.0  0.93641  0.08750  0.20299  1.0000
  N   N2        1.0  0.91399  0.11711  0.17998  1.0000
  H   H9        1.0  0.90509  0.12790  0.17486  1.0000
  H   H10       1.0  0.92571  0.11826  0.13071  1.0000
  C   C17       1.0  0.84903  0.70756  0.32942  1.0000
  C   C18       1.0  0.87745  0.76568  0.32943  1.0000
  C   C19       1.0  0.88834  0.75123  0.28530  1.0000
  C   C20       1.0  0.87434  0.72263  0.28541  1.0000
  H   H11       1.0  0.90651  0.76144  0.25196  1.0000
  H   H12       1.0  0.88261  0.71289  0.25111  1.0000
  C   C21       1.0  0.89236  0.79459  0.32574  1.0000
  C   C22       1.0  0.92217  0.85260  0.32881  1.0000
  C   C23       1.0  0.90525  0.83828  0.25567  1.0000
  C   C24       1.0  0.89029  0.80944  0.25247  1.0000
  H   H13       1.0  0.90397  0.84910  0.20299  1.0000
  N   N3        1.0  0.87436  0.79708  0.17999  1.0000
  H   H14       1.0  0.86357  0.77739  0.17488  1.0000
  H   H15       1.0  0.87320  0.80765  0.13071  1.0000
  C   C25       1.0  0.62664  0.17394  0.27897  1.0000
  C   C26       1.0  0.59942  0.16849  0.28009  1.0000
  C   C27       1.0  0.53381  0.13218  0.27071  1.0000
  C   C28       1.0  0.51131  0.13623  0.27630  1.0000
  H   H16       1.0  0.53760  0.12582  0.21118  1.0000
  H   H17       1.0  0.49960  0.13297  0.22062  1.0000
  H   H18       1.0  0.64136  0.19183  0.25129  1.0000
  N   N4        1.0  0.59412  0.18746  0.24425  1.0000
  H   H19       1.0  0.60845  0.20405  0.21692  1.0000
  H   H20       1.0  0.57600  0.18522  0.24434  1.0000
  C   C29       1.0  0.81756  0.45291  0.27881  1.0000
  C   C30       1.0  0.82301  0.43115  0.27998  1.0000
  C   C31       1.0  0.85931  0.40184  0.27077  1.0000
  C   C32       1.0  0.85525  0.37528  0.27638  1.0000
  H   H21       1.0  0.86568  0.41198  0.21124  1.0000
  H   H22       1.0  0.85852  0.36684  0.22072  1.0000
  H   H23       1.0  0.79969  0.44975  0.25105  1.0000
  N   N5        1.0  0.80405  0.40688  0.24410  1.0000
  H   H24       1.0  0.78746  0.40462  0.21670  1.0000
  H   H25       1.0  0.80628  0.39099  0.24423  1.0000
  C   C33       1.0  0.53857  0.36484  0.27887  1.0000
  C   C34       1.0  0.56033  0.39206  0.28003  1.0000
  C   C35       1.0  0.58964  0.45766  0.27075  1.0000
  C   C36       1.0  0.61620  0.48017  0.27634  1.0000
  H   H26       1.0  0.57950  0.45388  0.21121  1.0000
  H   H27       1.0  0.62464  0.49188  0.22069  1.0000
  H   H28       1.0  0.54173  0.35012  0.25115  1.0000
  N   N6        1.0  0.58461  0.39736  0.24418  1.0000
  H   H29       1.0  0.58687  0.38304  0.21682  1.0000
  H   H30       1.0  0.60049  0.41548  0.24430  1.0000
  C   C37       1.0  0.98023  0.96913  0.33533  1.0000
  N   N7        1.0  0.00793  0.98361  0.33524  1.0000
  C   C38       1.0  0.02235  0.01131  0.33532  1.0000
  N   N8        1.0  0.00787  0.02452  0.33526  1.0000
  C   C39       1.0  0.98017  0.01124  0.33534  1.0000
  N   N9        1.0  0.96696  0.98355  0.33526  1.0000
  C   C40       1.0  0.05140  0.02587  0.33443  1.0000
  C   C41       1.0  0.06632  0.01252  0.31564  1.0000
  C   C42       1.0  0.09497  0.02694  0.31333  1.0000
  C   C43       1.0  0.10984  0.05522  0.33096  1.0000
  C   C44       1.0  0.09507  0.06860  0.35074  1.0000
  C   C45       1.0  0.06640  0.05424  0.35176  1.0000
  C   C46       1.0  0.96575  0.94008  0.33444  1.0000
  C   C47       1.0  0.97911  0.92507  0.35176  1.0000
  C   C48       1.0  0.96481  0.89641  0.35078  1.0000
  C   C49       1.0  0.93666  0.88164  0.33098  1.0000
  C   C50       1.0  0.92324  0.89651  0.31334  1.0000
  C   C51       1.0  0.93748  0.92516  0.31566  1.0000
  C   C52       1.0  0.96560  0.02573  0.33446  1.0000
  C   C53       1.0  0.93724  0.01237  0.35180  1.0000
  C   C54       1.0  0.92287  0.02667  0.35080  1.0000
  C   C55       1.0  0.93626  0.05482  0.33099  1.0000
  C   C56       1.0  0.96454  0.06823  0.31334  1.0000
  C   C57       1.0  0.97896  0.05400  0.31569  1.0000
  H   H31       1.0  0.97531  0.88640  0.36293  1.0000
  H   H32       1.0  0.99948  0.93484  0.36608  1.0000
  H   H33       1.0  0.90280  0.88657  0.29988  1.0000
  H   H34       1.0  0.92686  0.93497  0.30227  1.0000
  H   H35       1.0  0.92663  0.99199  0.36610  1.0000
  H   H36       1.0  0.90236  0.01616  0.36296  1.0000
  H   H37       1.0  0.99939  0.06461  0.30226  1.0000
  H   H38       1.0  0.97504  0.08867  0.29988  1.0000
  H   H39       1.0  0.05664  0.06484  0.36608  1.0000
  H   H40       1.0  0.10508  0.08912  0.36293  1.0000
  H   H41       1.0  0.10490  0.01644  0.29986  1.0000
  H   H42       1.0  0.05650  0.99209  0.30224  1.0000
  C   C58       1.0  0.44258  0.19971  0.33849  1.0000
  N   N10       1.0  0.41493  0.18661  0.33368  1.0000
  C   C59       1.0  0.40069  0.20019  0.33239  1.0000
  N   N11       1.0  0.41518  0.22798  0.33613  1.0000
  C   C60       1.0  0.44281  0.24208  0.34167  1.0000
  N   N12       1.0  0.45555  0.22726  0.34240  1.0000
  C   C61       1.0  0.37162  0.18575  0.32960  1.0000
  C   C62       1.0  0.35669  0.15731  0.31376  1.0000
  C   C63       1.0  0.32803  0.14295  0.31316  1.0000
  C   C64       1.0  0.31305  0.15638  0.32872  1.0000
  C   C65       1.0  0.32789  0.18481  0.34396  1.0000
  C   C66       1.0  0.35656  0.19919  0.34429  1.0000
  C   C67       1.0  0.45813  0.18620  0.34095  1.0000
  C   C68       1.0  0.44612  0.15760  0.33083  1.0000
  C   C69       1.0  0.46204  0.14482  0.33380  1.0000
  C   C70       1.0  0.49041  0.16024  0.34900  1.0000
  C   C71       1.0  0.50252  0.18877  0.35782  1.0000
  C   C72       1.0  0.48673  0.20144  0.35385  1.0000
  C   C73       1.0  0.45887  0.27102  0.34463  1.0000
  C   C74       1.0  0.48603  0.28358  0.37630  1.0000
  C   C75       1.0  0.50335  0.31184  0.37087  1.0000
  C   C76       1.0  0.49428  0.32876  0.33314  1.0000
  C   C77       1.0  0.46673  0.31664  0.30634  1.0000
  C   C78       1.0  0.44927  0.28816  0.31196  1.0000
  H   H43       1.0  0.45272  0.12413  0.32648  1.0000
  H   H44       1.0  0.42559  0.14574  0.32080  1.0000
  H   H45       1.0  0.52312  0.20075  0.36659  1.0000
  H   H46       1.0  0.49667  0.22215  0.36117  1.0000
  H   H47       1.0  0.49389  0.27225  0.40216  1.0000
  H   H48       1.0  0.52299  0.31987  0.39297  1.0000
  H   H49       1.0  0.42990  0.27993  0.28745  1.0000
  H   H50       1.0  0.45958  0.32828  0.27799  1.0000
  H   H51       1.0  0.36628  0.21965  0.35712  1.0000
  H   H52       1.0  0.31794  0.19531  0.35710  1.0000
  H   H53       1.0  0.31819  0.12248  0.30018  1.0000
  H   H54       1.0  0.36650  0.14660  0.30199  1.0000
  C   C79       1.0  0.79176  0.24306  0.33851  1.0000
  N   N13       1.0  0.80486  0.22851  0.33368  1.0000
  C   C80       1.0  0.79128  0.20069  0.33240  1.0000
  N   N14       1.0  0.76348  0.18739  0.33615  1.0000
  C   C81       1.0  0.74938  0.20092  0.34172  1.0000
  N   N15       1.0  0.76421  0.22848  0.34244  1.0000
  C   C82       1.0  0.80571  0.18606  0.32957  1.0000
  C   C83       1.0  0.83416  0.19957  0.31373  1.0000
  C   C84       1.0  0.84852  0.18528  0.31313  1.0000
  C   C85       1.0  0.83509  0.15687  0.32869  1.0000
  C   C86       1.0  0.80666  0.14327  0.34395  1.0000
  C   C87       1.0  0.79227  0.15756  0.34425  1.0000
  C   C88       1.0  0.80526  0.27212  0.34098  1.0000
  C   C89       1.0  0.83386  0.28871  0.33085  1.0000
  C   C90       1.0  0.84664  0.31742  0.33378  1.0000
  C   C91       1.0  0.83122  0.33037  0.34900  1.0000
  C   C92       1.0  0.80269  0.31393  0.35789  1.0000
  C   C93       1.0  0.79003  0.28548  0.35392  1.0000
  C   C94       1.0  0.72044  0.18804  0.34468  1.0000
  C   C95       1.0  0.70789  0.20264  0.37639  1.0000
  C   C96       1.0  0.67963  0.19171  0.37103  1.0000
  C   C97       1.0  0.66271  0.16572  0.33324  1.0000
  C   C98       1.0  0.67483  0.15030  0.30629  1.0000
  C   C99       1.0  0.70331  0.16131  0.31199  1.0000
  H   H55       1.0  0.86733  0.32878  0.32649  1.0000
  H   H56       1.0  0.84573  0.28005  0.32080  1.0000
  H   H57       1.0  0.79071  0.32256  0.36668  1.0000
  H   H58       1.0  0.76932  0.27471  0.36125  1.0000
  H   H59       1.0  0.71923  0.22183  0.40228  1.0000
  H   H60       1.0  0.67160  0.20331  0.39314  1.0000
  H   H61       1.0  0.71153  0.15016  0.28743  1.0000
  H   H62       1.0  0.66318  0.13150  0.27802  1.0000
  H   H63       1.0  0.77182  0.14682  0.35710  1.0000
  H   H64       1.0  0.79616  0.12282  0.35708  1.0000
  H   H65       1.0  0.86899  0.19590  0.30014  1.0000
  H   H66       1.0  0.84487  0.22010  0.30198  1.0000
  C   C100      1.0  0.74841  0.54890  0.33851  1.0000
  N   N16       1.0  0.76296  0.57655  0.33370  1.0000
  C   C101      1.0  0.79078  0.59079  0.33240  1.0000
  N   N17       1.0  0.80408  0.57630  0.33613  1.0000
  C   C102      1.0  0.79054  0.54866  0.34166  1.0000
  N   N18       1.0  0.76298  0.53592  0.34241  1.0000
  C   C103      1.0  0.80541  0.61985  0.32961  1.0000
  C   C104      1.0  0.79189  0.63478  0.31376  1.0000
  C   C105      1.0  0.80619  0.66344  0.31316  1.0000
  C   C106      1.0  0.83460  0.67843  0.32871  1.0000
  C   C107      1.0  0.84820  0.66358  0.34395  1.0000
  C   C108      1.0  0.83391  0.63491  0.34428  1.0000
  C   C109      1.0  0.71935  0.53335  0.34100  1.0000
  C   C110      1.0  0.70276  0.54535  0.33087  1.0000
  C   C111      1.0  0.67405  0.52943  0.33384  1.0000
  C   C112      1.0  0.66110  0.50106  0.34906  1.0000
  C   C113      1.0  0.67753  0.48896  0.35790  1.0000
  C   C114      1.0  0.70599  0.50475  0.35392  1.0000
  C   C115      1.0  0.80343  0.53260  0.34460  1.0000
  C   C116      1.0  0.78882  0.50544  0.37625  1.0000
  C   C117      1.0  0.79975  0.48812  0.37079  1.0000
  C   C118      1.0  0.82575  0.49719  0.33310  1.0000
  C   C119      1.0  0.84120  0.52476  0.30635  1.0000
  C   C120      1.0  0.83016  0.54220  0.31192  1.0000
  H   H67       1.0  0.66269  0.53875  0.32650  1.0000
  H   H68       1.0  0.71142  0.56588  0.32082  1.0000
  H   H69       1.0  0.66891  0.46835  0.36668  1.0000
  H   H70       1.0  0.71676  0.49481  0.36125  1.0000
  H   H71       1.0  0.76962  0.49757  0.40206  1.0000
  H   H72       1.0  0.78815  0.46847  0.39285  1.0000
  H   H73       1.0  0.84132  0.56159  0.28753  1.0000
  H   H74       1.0  0.85999  0.53191  0.27805  1.0000
  H   H75       1.0  0.84465  0.62520  0.35710  1.0000
  H   H76       1.0  0.86865  0.67354  0.35709  1.0000
  H   H77       1.0  0.79556  0.67328  0.30018  1.0000
  H   H78       1.0  0.77137  0.62497  0.30200  1.0000
  C   C121      1.0  0.26923  0.11632  0.37387  1.0000
  C   C122      1.0  0.24038  0.10116  0.37468  1.0000
  C   C123      1.0  0.18271  0.10076  0.39880  1.0000
  C   C124      1.0  0.15411  0.08695  0.40007  1.0000
  H   H79       1.0  0.19312  0.11273  0.45222  1.0000
  H   H80       1.0  0.14450  0.08903  0.45479  1.0000
  H   H81       1.0  0.27978  0.10878  0.40743  1.0000
  N   N19       1.0  0.22776  0.07678  0.41801  1.0000
  H   H82       1.0  0.23814  0.06970  0.44812  1.0000
  H   H83       1.0  0.20805  0.06549  0.41971  1.0000
  C   C125      1.0  0.87515  0.15312  0.37384  1.0000
  C   C126      1.0  0.89032  0.13943  0.37466  1.0000
  C   C127      1.0  0.89072  0.08216  0.39880  1.0000
  C   C128      1.0  0.90453  0.06737  0.40008  1.0000
  H   H84       1.0  0.87874  0.08059  0.45221  1.0000
  H   H85       1.0  0.90244  0.05567  0.45480  1.0000
  H   H86       1.0  0.88269  0.17120  0.40740  1.0000
  N   N20       1.0  0.91469  0.15118  0.41798  1.0000
  H   H87       1.0  0.92177  0.16864  0.44810  1.0000
  H   H88       1.0  0.92598  0.14276  0.41969  1.0000
  C   C129      1.0  0.83836  0.72224  0.37387  1.0000
  C   C130      1.0  0.85205  0.75109  0.37468  1.0000
  C   C131      1.0  0.90932  0.80876  0.39880  1.0000
  C   C132      1.0  0.92411  0.83736  0.40008  1.0000
  H   H89       1.0  0.91089  0.79836  0.45221  1.0000
  H   H90       1.0  0.93580  0.84697  0.45480  1.0000
  H   H91       1.0  0.82027  0.71169  0.40743  1.0000
  N   N21       1.0  0.84030  0.76372  0.41801  1.0000
  H   H92       1.0  0.82283  0.75333  0.44813  1.0000
  H   H93       1.0  0.84872  0.78343  0.41971  1.0000
  C   C133      1.0  0.63452  0.15659  0.32079  1.0000
  C   C134      1.0  0.57924  0.14414  0.32221  1.0000
  C   C135      1.0  0.58671  0.12583  0.35900  1.0000
  C   C136      1.0  0.61403  0.13193  0.35811  1.0000
  H   H94       1.0  0.57262  0.10877  0.39224  1.0000
  H   H95       1.0  0.61912  0.11931  0.39124  1.0000
  C   C137      1.0  0.55297  0.14036  0.34105  1.0000
  C   C138      1.0  0.50748  0.14852  0.35257  1.0000
  C   C139      1.0  0.52532  0.15446  0.42576  1.0000
  C   C140      1.0  0.54835  0.15103  0.42112  1.0000
  H   H96       1.0  0.52290  0.16383  0.48066  1.0000
  N   N22       1.0  0.56594  0.15969  0.49144  1.0000
  H   H97       1.0  0.58219  0.15807  0.49199  1.0000
  H   H98       1.0  0.56242  0.16720  0.54493  1.0000
  C   C141      1.0  0.83490  0.47815  0.32065  1.0000
  C   C142      1.0  0.84734  0.43530  0.32219  1.0000
  C   C143      1.0  0.86564  0.46109  0.35904  1.0000
  C   C144      1.0  0.85954  0.48231  0.35810  1.0000
  H   H99       1.0  0.88268  0.46404  0.39236  1.0000
  H   H100      1.0  0.87215  0.50001  0.39128  1.0000
  C   C145      1.0  0.85111  0.41281  0.34108  1.0000
  C   C146      1.0  0.84294  0.35915  0.35263  1.0000
  C   C147      1.0  0.83699  0.37106  0.42578  1.0000
  C   C148      1.0  0.84043  0.39753  0.42113  1.0000
  H   H101      1.0  0.82761  0.35927  0.48067  1.0000
  N   N23       1.0  0.83175  0.40645  0.49142  1.0000
  H   H102      1.0  0.83337  0.42432  0.49196  1.0000
  H   H103      1.0  0.82423  0.39542  0.54489  1.0000
  C   C149      1.0  0.51333  0.35695  0.32068  1.0000
  C   C150      1.0  0.55618  0.41224  0.32220  1.0000
  C   C151      1.0  0.53039  0.40475  0.35902  1.0000
  C   C152      1.0  0.50917  0.37743  0.35809  1.0000
  H   H104      1.0  0.52744  0.41884  0.39230  1.0000
  H   H105      1.0  0.49147  0.37235  0.39124  1.0000
  C   C153      1.0  0.57867  0.43850  0.34107  1.0000
  C   C154      1.0  0.63231  0.48399  0.35261  1.0000
  C   C155      1.0  0.62042  0.46614  0.42580  1.0000
  C   C156      1.0  0.59395  0.44311  0.42113  1.0000
  H   H106      1.0  0.63220  0.46856  0.48070  1.0000
  N   N24       1.0  0.58502  0.42551  0.49144  1.0000
  H   H107      1.0  0.56715  0.40926  0.49198  1.0000
  H   H108      1.0  0.59605  0.42903  0.54492  1.0000
