data_image0
_chemical_formula_structural       C18H9C3O3C18H9C3O3C3H2NHC3H2NHC3H2NHC6H6C6H6C4H3CH3NHC4H3CH3NHC4H3CH3NH
_chemical_formula_sum              "C78 H60 O6 N6"
_cell_length_a       37.0901
_cell_length_b       37.0901
_cell_length_c       15.0242
_cell_angle_alpha    90
_cell_angle_beta     90
_cell_angle_gamma    120

_space_group_name_H-M_alt    "P 1"
_space_group_IT_number       1

loop_
  _space_group_symop_operation_xyz
  'x, y, z'

loop_
  _atom_site_type_symbol
  _atom_site_label
  _atom_site_symmetry_multiplicity
  _atom_site_fract_x
  _atom_site_fract_y
  _atom_site_fract_z
  _atom_site_occupancy
  C   C1        1.0  0.28799  0.63984  0.32235  1.0000
  C   C2        1.0  0.30652  0.68369  0.32226  1.0000
  C   C3        1.0  0.35023  0.71002  0.32233  1.0000
  C   C4        1.0  0.37554  0.69148  0.32227  1.0000
  C   C5        1.0  0.35816  0.64777  0.32237  1.0000
  C   C6        1.0  0.31432  0.62247  0.32230  1.0000
  C   C7        1.0  0.36834  0.75416  0.32356  1.0000
  C   C8        1.0  0.35425  0.77446  0.26522  1.0000
  C   C9        1.0  0.37211  0.81800  0.26677  1.0000
  C   C10       1.0  0.40489  0.84277  0.32615  1.0000
  C   C11       1.0  0.24385  0.61381  0.32359  1.0000
  C   C12       1.0  0.15524  0.56174  0.32624  1.0000
  C   C13       1.0  0.18001  0.55374  0.26683  1.0000
  C   C14       1.0  0.22355  0.57943  0.26525  1.0000
  C   C15       1.0  0.38420  0.62967  0.32364  1.0000
  C   C16       1.0  0.43624  0.59310  0.32629  1.0000
  C   C17       1.0  0.44425  0.62588  0.26688  1.0000
  C   C18       1.0  0.41858  0.64374  0.26531  1.0000
  H   H1        1.0  0.16653  0.52954  0.22265  1.0000
  H   H2        1.0  0.24025  0.57314  0.21989  1.0000
  H   H3        1.0  0.42486  0.66672  0.21989  1.0000
  H   H4        1.0  0.46844  0.63658  0.22265  1.0000
  H   H5        1.0  0.36138  0.83147  0.22259  1.0000
  H   H6        1.0  0.33125  0.75775  0.21987  1.0000
  H   H7        1.0  0.28782  0.69670  0.32265  1.0000
  H   H8        1.0  0.30131  0.59075  0.32271  1.0000
  H   H9        1.0  0.40726  0.71019  0.32267  1.0000
  C   C19       1.0  0.42257  0.88678  0.32693  1.0000
  C   C20       1.0  0.11123  0.53541  0.32702  1.0000
  C   C21       1.0  0.46255  0.57541  0.32704  1.0000
  O   O1        1.0  0.50347  0.60090  0.30877  1.0000
  O   O2        1.0  0.09582  0.49449  0.30876  1.0000
  O   O3        1.0  0.39704  0.90218  0.30881  1.0000
  C   C22       1.0  0.70959  0.35881  0.30368  1.0000
  C   C23       1.0  0.69125  0.31497  0.30354  1.0000
  C   C24       1.0  0.64758  0.28839  0.30366  1.0000
  C   C25       1.0  0.62208  0.30673  0.30340  1.0000
  C   C26       1.0  0.63917  0.35040  0.30356  1.0000
  C   C27       1.0  0.68301  0.37590  0.30344  1.0000
  C   C28       1.0  0.62974  0.24426  0.30704  1.0000
  C   C29       1.0  0.64464  0.22351  0.25212  1.0000
  C   C30       1.0  0.62721  0.18005  0.25656  1.0000
  C   C31       1.0  0.59393  0.15581  0.31524  1.0000
  C   C32       1.0  0.75371  0.38511  0.30700  1.0000
  C   C33       1.0  0.84217  0.43773  0.31492  1.0000
  C   C34       1.0  0.81791  0.44666  0.25605  1.0000
  C   C35       1.0  0.77444  0.42063  0.25176  1.0000
  C   C36       1.0  0.61288  0.36823  0.30685  1.0000
  C   C37       1.0  0.56024  0.40405  0.31479  1.0000
  C   C38       1.0  0.55134  0.37088  0.25586  1.0000
  C   C39       1.0  0.57736  0.35343  0.25159  1.0000
  H   H10       1.0  0.83176  0.47173  0.21413  1.0000
  H   H11       1.0  0.75811  0.42758  0.20670  1.0000
  H   H12       1.0  0.57041  0.33015  0.20655  1.0000
  H   H13       1.0  0.52624  0.35962  0.21401  1.0000
  H   H14       1.0  0.63853  0.16618  0.21493  1.0000
  H   H15       1.0  0.66799  0.23982  0.20721  1.0000
  H   H16       1.0  0.71011  0.30215  0.30462  1.0000
  H   H17       1.0  0.69584  0.40759  0.30444  1.0000
  H   H18       1.0  0.59040  0.28788  0.30433  1.0000
  C   C40       1.0  0.57649  0.11193  0.31972  1.0000
  C   C41       1.0  0.88607  0.46415  0.31910  1.0000
  C   C42       1.0  0.53380  0.42150  0.31900  1.0000
  O   O4        1.0  0.49246  0.39591  0.30550  1.0000
  O   O5        1.0  0.90182  0.50550  0.30563  1.0000
  O   O6        1.0  0.60221  0.09624  0.30739  1.0000
  C   C43       1.0  0.52337  0.47940  0.34456  1.0000
  C   C44       1.0  0.51714  0.49686  0.26704  1.0000
  C   C45       1.0  0.49218  0.51523  0.26945  1.0000
  H   H19       1.0  0.48753  0.52708  0.21182  1.0000
  H   H20       1.0  0.53044  0.49591  0.20802  1.0000
  N   N1        1.0  0.54837  0.46245  0.33724  1.0000
  H   H21       1.0  0.57826  0.48173  0.33999  1.0000
  C   C46       1.0  0.51854  0.04361  0.34486  1.0000
  C   C47       1.0  0.50097  0.01997  0.26733  1.0000
  C   C48       1.0  0.48262  0.97663  0.26954  1.0000
  H   H22       1.0  0.47070  0.96018  0.21190  1.0000
  H   H23       1.0  0.50184  0.03426  0.20842  1.0000
  N   N2        1.0  0.53553  0.08559  0.33775  1.0000
  H   H24       1.0  0.51616  0.09613  0.33874  1.0000
  C   C49       1.0  0.95439  0.47456  0.34460  1.0000
  C   C50       1.0  0.97809  0.48078  0.26708  1.0000
  C   C51       1.0  0.02142  0.50574  0.26947  1.0000
  H   H25       1.0  0.03791  0.51038  0.21184  1.0000
  H   H26       1.0  0.96382  0.46746  0.20807  1.0000
  N   N3        1.0  0.91243  0.44957  0.33729  1.0000
  H   H27       1.0  0.90182  0.41968  0.34000  1.0000
  C   C52       1.0  0.41865  0.82241  0.38515  1.0000
  C   C53       1.0  0.40072  0.77887  0.38381  1.0000
  C   C54       1.0  0.21914  0.62148  0.38386  1.0000
  C   C55       1.0  0.17560  0.59587  0.38521  1.0000
  C   C56       1.0  0.37654  0.59732  0.38395  1.0000
  C   C57       1.0  0.40212  0.57936  0.38528  1.0000
  H   H28       1.0  0.15914  0.60194  0.43156  1.0000
  H   H29       1.0  0.23272  0.64535  0.42881  1.0000
  H   H30       1.0  0.35264  0.58700  0.42885  1.0000
  H   H31       1.0  0.39604  0.55682  0.43161  1.0000
  H   H32       1.0  0.41102  0.76530  0.42875  1.0000
  H   H33       1.0  0.44120  0.83888  0.43146  1.0000
  C   C58       1.0  0.57933  0.17657  0.37085  1.0000
  C   C59       1.0  0.59699  0.22002  0.36694  1.0000
  C   C60       1.0  0.77797  0.37671  0.36709  1.0000
  C   C61       1.0  0.82142  0.40251  0.37090  1.0000
  C   C62       1.0  0.62127  0.40088  0.36695  1.0000
  C   C63       1.0  0.59547  0.41852  0.37075  1.0000
  H   H34       1.0  0.83755  0.39576  0.41683  1.0000
  H   H35       1.0  0.76413  0.35208  0.41015  1.0000
  H   H36       1.0  0.64590  0.41167  0.41002  1.0000
  H   H37       1.0  0.60220  0.44138  0.41674  1.0000
  H   H38       1.0  0.58612  0.23386  0.40979  1.0000
  H   H39       1.0  0.55638  0.16045  0.41665  1.0000
  C   C64       1.0  0.47345  0.51716  0.34962  1.0000
  C   C65       1.0  0.47925  0.49958  0.42900  1.0000
  C   C66       1.0  0.50479  0.48070  0.42658  1.0000
  C   C67       1.0  0.45992  0.50191  0.51466  1.0000
  H   H40       1.0  0.44201  0.51780  0.50939  1.0000
  H   H41       1.0  0.48409  0.51882  0.56424  1.0000
  H   H42       1.0  0.43885  0.47056  0.53926  1.0000
  C   C68       1.0  0.51220  0.46280  0.50919  1.0000
  H   H43       1.0  0.53225  0.44948  0.49931  1.0000
  H   H44       1.0  0.48263  0.43804  0.53509  1.0000
  H   H45       1.0  0.52706  0.48702  0.55964  1.0000
  N   N4        1.0  0.44865  0.53467  0.34671  1.0000
  H   H46       1.0  0.41920  0.51612  0.35884  1.0000
  C   C69       1.0  0.48082  0.95592  0.34956  1.0000
  C   C70       1.0  0.49849  0.97925  0.42895  1.0000
  C   C71       1.0  0.51737  0.02367  0.42671  1.0000
  C   C72       1.0  0.49625  0.95753  0.51448  1.0000
  H   H47       1.0  0.48036  0.92374  0.50910  1.0000
  H   H48       1.0  0.47938  0.96475  0.56425  1.0000
  H   H49       1.0  0.52762  0.96779  0.53890  1.0000
  C   C73       1.0  0.53534  0.04892  0.50938  1.0000
  H   H50       1.0  0.54862  0.08229  0.49968  1.0000
  H   H51       1.0  0.56013  0.04411  0.53502  1.0000
  H   H52       1.0  0.51117  0.03950  0.55996  1.0000
  N   N5        1.0  0.46332  0.91362  0.34648  1.0000
  H   H53       1.0  0.48188  0.90272  0.35849  1.0000
  C   C74       1.0  0.04208  0.52449  0.34962  1.0000
  C   C75       1.0  0.01870  0.51870  0.42900  1.0000
  C   C76       1.0  0.97428  0.49316  0.42660  1.0000
  C   C77       1.0  0.04037  0.53805  0.51464  1.0000
  H   H54       1.0  0.07417  0.55596  0.50936  1.0000
  H   H55       1.0  0.03311  0.51389  0.56425  1.0000
  H   H56       1.0  0.03009  0.55913  0.53922  1.0000
  C   C78       1.0  0.94898  0.48577  0.50922  1.0000
  H   H57       1.0  0.91560  0.46571  0.49936  1.0000
  H   H58       1.0  0.95379  0.51534  0.53508  1.0000
  H   H59       1.0  0.95834  0.47092  0.55968  1.0000
  N   N6        1.0  0.08438  0.54929  0.34669  1.0000
  H   H60       1.0  0.09527  0.57875  0.35881  1.0000
