data_image0
_chemical_formula_structural       CHC2HC7HC2HC2HC2HC2HCNCHNHCNCHNHCNCHNHCNCHNHCNCHNHCNCHNHC4H3C4H2C4H2C4H2C4H2C4HC5HOHOHC4HC6HOHOHC3HC6HOHOHC4HC6HOHOHC4HC6HOHOHC4HC6HOHOH
_chemical_formula_sum              "C108 H54 N12 O12"
_cell_length_a       31.7041
_cell_length_b       31.7042
_cell_length_c       14.8666
_cell_angle_alpha    90
_cell_angle_beta     90
_cell_angle_gamma    120

_space_group_name_H-M_alt    "P 1"
_space_group_IT_number       1

loop_
  _space_group_symop_operation_xyz
  'x, y, z'

loop_
  _atom_site_type_symbol
  _atom_site_label
  _atom_site_symmetry_multiplicity
  _atom_site_fract_x
  _atom_site_fract_y
  _atom_site_fract_z
  _atom_site_occupancy
  C   C1        1.0  0.06173  0.57007  0.34119  1.0000
  H   H1        1.0  0.04546  0.59071  0.34250  1.0000
  C   C2        1.0  0.03360  0.51792  0.34081  1.0000
  C   C3        1.0  0.06172  0.49389  0.34093  1.0000
  H   H2        1.0  0.04544  0.45698  0.34188  1.0000
  C   C4        1.0  0.11323  0.59629  0.34057  1.0000
  C   C5        1.0  0.11323  0.51918  0.34047  1.0000
  C   C6        1.0  0.13839  0.57031  0.34004  1.0000
  C   C7        1.0  0.14178  0.49613  0.34479  1.0000
  C   C8        1.0  0.14180  0.64790  0.34487  1.0000
  C   C9        1.0  0.90026  0.41270  0.34087  1.0000
  C   C10       1.0  0.95176  0.43891  0.34140  1.0000
  H   H3        1.0  0.96803  0.41829  0.34279  1.0000
  C   C11       1.0  0.59852  0.48979  0.34029  1.0000
  C   C12       1.0  0.57232  0.51510  0.34076  1.0000
  H   H4        1.0  0.59296  0.55200  0.34159  1.0000
  C   C13       1.0  0.44116  0.49392  0.34079  1.0000
  C   C14       1.0  0.41496  0.51922  0.34025  1.0000
  H   H5        1.0  0.42052  0.45702  0.34169  1.0000
  C   C15       1.0  0.52140  0.11101  0.34058  1.0000
  C   C16       1.0  0.49612  0.05951  0.34106  1.0000
  H   H6        1.0  0.45922  0.04323  0.34205  1.0000
  C   C17       1.0  0.51734  0.94956  0.34128  1.0000
  C   C18       1.0  0.49206  0.89806  0.34089  1.0000
  H   H7        1.0  0.55425  0.96584  0.34233  1.0000
  C   C19       1.0  0.33655  0.49087  0.26518  1.0000
  N   N1        1.0  0.29151  0.48583  0.27027  1.0000
  C   C20       1.0  0.16323  0.49083  0.26554  1.0000
  H   H8        1.0  0.35218  0.49511  0.20324  1.0000
  N   N2        1.0  0.20325  0.48581  0.27045  1.0000
  H   H9        1.0  0.15184  0.49506  0.20359  1.0000
  C   C21       1.0  0.52054  0.84812  0.26593  1.0000
  N   N3        1.0  0.52551  0.80808  0.27084  1.0000
  C   C22       1.0  0.52049  0.67479  0.26558  1.0000
  H   H10       1.0  0.51624  0.85947  0.20398  1.0000
  N   N4        1.0  0.52551  0.71982  0.27065  1.0000
  H   H11       1.0  0.51630  0.65920  0.20361  1.0000
  C   C23       1.0  0.16327  0.67465  0.26565  1.0000
  N   N5        1.0  0.20325  0.71970  0.27065  1.0000
  C   C24       1.0  0.33649  0.84803  0.26568  1.0000
  H   H12       1.0  0.15182  0.65905  0.20369  1.0000
  N   N6        1.0  0.29149  0.80798  0.27068  1.0000
  H   H13       1.0  0.35213  0.85933  0.20373  1.0000
  C   C25       1.0  0.67692  0.51818  0.26519  1.0000
  N   N7        1.0  0.72197  0.52324  0.27020  1.0000
  C   C26       1.0  0.85022  0.51820  0.26519  1.0000
  H   H14       1.0  0.66134  0.51409  0.20323  1.0000
  N   N8        1.0  0.81024  0.52326  0.27018  1.0000
  H   H15       1.0  0.86168  0.51408  0.20322  1.0000
  C   C27       1.0  0.49298  0.16104  0.26548  1.0000
  N   N9        1.0  0.48794  0.20104  0.27057  1.0000
  C   C28       1.0  0.49296  0.33432  0.26585  1.0000
  H   H16       1.0  0.49719  0.14965  0.20352  1.0000
  N   N10       1.0  0.48794  0.28929  0.27076  1.0000
  H   H17       1.0  0.49716  0.34993  0.20389  1.0000
  C   C29       1.0  0.85026  0.33433  0.26598  1.0000
  N   N11       1.0  0.81021  0.28932  0.27093  1.0000
  C   C30       1.0  0.67689  0.16109  0.26578  1.0000
  H   H18       1.0  0.86157  0.35000  0.20404  1.0000
  N   N12       1.0  0.72193  0.20108  0.27082  1.0000
  H   H19       1.0  0.66124  0.14970  0.20384  1.0000
  C   C31       1.0  0.97988  0.49107  0.34084  1.0000
  C   C32       1.0  0.95176  0.51510  0.34078  1.0000
  C   C33       1.0  0.90026  0.48981  0.34037  1.0000
  C   C34       1.0  0.87509  0.43867  0.34012  1.0000
  H   H20       1.0  0.96805  0.55201  0.34152  1.0000
  H   H21       1.0  0.83768  0.41997  0.34111  1.0000
  H   H22       1.0  0.17581  0.58902  0.34106  1.0000
  C   C35       1.0  0.52017  0.49108  0.34079  1.0000
  C   C36       1.0  0.49612  0.43893  0.34130  1.0000
  C   C37       1.0  0.52140  0.41270  0.34068  1.0000
  C   C38       1.0  0.57254  0.43866  0.34001  1.0000
  H   H23       1.0  0.45922  0.41830  0.34271  1.0000
  H   H24       1.0  0.59123  0.41994  0.34100  1.0000
  C   C39       1.0  0.49332  0.51794  0.34077  1.0000
  C   C40       1.0  0.44094  0.57036  0.33985  1.0000
  C   C41       1.0  0.49208  0.59632  0.34049  1.0000
  C   C42       1.0  0.51735  0.57009  0.34118  1.0000
  H   H25       1.0  0.42224  0.58907  0.34074  1.0000
  H   H26       1.0  0.55426  0.59071  0.34249  1.0000
  C   C43       1.0  0.52016  0.03140  0.34092  1.0000
  C   C44       1.0  0.57231  0.05953  0.34126  1.0000
  C   C45       1.0  0.59852  0.11103  0.34073  1.0000
  C   C46       1.0  0.57254  0.13619  0.34013  1.0000
  H   H27       1.0  0.59295  0.04326  0.34245  1.0000
  H   H28       1.0  0.59124  0.17360  0.34107  1.0000
  C   C47       1.0  0.49330  0.97767  0.34095  1.0000
  C   C48       1.0  0.44092  0.87288  0.34041  1.0000
  C   C49       1.0  0.41494  0.89804  0.34078  1.0000
  C   C50       1.0  0.44115  0.94955  0.34118  1.0000
  H   H29       1.0  0.42222  0.83547  0.34137  1.0000
  H   H30       1.0  0.42052  0.96582  0.34216  1.0000
  C   C51       1.0  0.36334  0.49618  0.34434  1.0000
  C   C52       1.0  0.26907  0.48450  0.34912  1.0000
  C   C53       1.0  0.29360  0.48840  0.43146  1.0000
  C   C54       1.0  0.34085  0.49417  0.42759  1.0000
  H   H31       1.0  0.36083  0.50116  0.48542  1.0000
  C   C55       1.0  0.22444  0.48448  0.34921  1.0000
  C   C56       1.0  0.16241  0.49417  0.42787  1.0000
  C   C57       1.0  0.20387  0.48836  0.43162  1.0000
  C   C58       1.0  0.22732  0.49005  0.51374  1.0000
  C   C59       1.0  0.27189  0.49007  0.51366  1.0000
  H   H32       1.0  0.14943  0.50109  0.48580  1.0000
  O   O1        1.0  0.20961  0.49554  0.59370  1.0000
  H   H33       1.0  0.18685  0.46244  0.61521  1.0000
  O   O2        1.0  0.29515  0.49556  0.59355  1.0000
  H   H34       1.0  0.28482  0.46246  0.61504  1.0000
  C   C60       1.0  0.51512  0.86953  0.34513  1.0000
  C   C61       1.0  0.52677  0.78686  0.34958  1.0000
  C   C62       1.0  0.52282  0.80739  0.43198  1.0000
  C   C63       1.0  0.51706  0.84887  0.42823  1.0000
  H   H35       1.0  0.51000  0.86176  0.48610  1.0000
  C   C64       1.0  0.52678  0.74224  0.34948  1.0000
  C   C65       1.0  0.51513  0.64791  0.34467  1.0000
  C   C66       1.0  0.51706  0.67044  0.42786  1.0000
  C   C67       1.0  0.52282  0.71768  0.43179  1.0000
  C   C68       1.0  0.52107  0.73934  0.51399  1.0000
  C   C69       1.0  0.52107  0.78390  0.51409  1.0000
  H   H36       1.0  0.51002  0.65044  0.48568  1.0000
  O   O3        1.0  0.51554  0.71605  0.59386  1.0000
  H   H37       1.0  0.54862  0.72636  0.61541  1.0000
  O   O4        1.0  0.51555  0.80158  0.59404  1.0000
  H   H38       1.0  0.54863  0.82434  0.61561  1.0000
  C   C70       1.0  0.22440  0.74217  0.34945  1.0000
  C   C71       1.0  0.20381  0.71766  0.43183  1.0000
  C   C72       1.0  0.16231  0.67043  0.42805  1.0000
  H   H39       1.0  0.14941  0.65045  0.48590  1.0000
  C   C73       1.0  0.26903  0.78680  0.34946  1.0000
  C   C74       1.0  0.36334  0.86950  0.34483  1.0000
  C   C75       1.0  0.34077  0.84887  0.42797  1.0000
  C   C76       1.0  0.29353  0.80739  0.43181  1.0000
  C   C77       1.0  0.27182  0.78395  0.51397  1.0000
  C   C78       1.0  0.22727  0.73938  0.51398  1.0000
  H   H40       1.0  0.36073  0.86181  0.48584  1.0000
  O   O5        1.0  0.29505  0.80169  0.59389  1.0000
  H   H41       1.0  0.28473  0.82446  0.61539  1.0000
  O   O6        1.0  0.20951  0.71616  0.59390  1.0000
  H   H42       1.0  0.18678  0.72653  0.61542  1.0000
  C   C79       1.0  0.65014  0.51283  0.34438  1.0000
  C   C80       1.0  0.74442  0.52450  0.34900  1.0000
  C   C81       1.0  0.71988  0.52050  0.43137  1.0000
  C   C82       1.0  0.67262  0.51469  0.42756  1.0000
  H   H43       1.0  0.65268  0.50774  0.48545  1.0000
  C   C83       1.0  0.78905  0.52451  0.34898  1.0000
  C   C84       1.0  0.87171  0.51287  0.34432  1.0000
  C   C85       1.0  0.85113  0.51482  0.42752  1.0000
  C   C86       1.0  0.80961  0.52052  0.43134  1.0000
  C   C87       1.0  0.78615  0.51874  0.51350  1.0000
  C   C88       1.0  0.74158  0.51874  0.51352  1.0000
  H   H44       1.0  0.86401  0.50773  0.48538  1.0000
  O   O7        1.0  0.80389  0.51323  0.59340  1.0000
  H   H45       1.0  0.82660  0.54632  0.61500  1.0000
  O   O8        1.0  0.71833  0.51317  0.59344  1.0000
  H   H46       1.0  0.72863  0.54624  0.61505  1.0000
  C   C89       1.0  0.49833  0.13954  0.34459  1.0000
  C   C90       1.0  0.48666  0.22217  0.34942  1.0000
  C   C91       1.0  0.49062  0.20157  0.43173  1.0000
  C   C92       1.0  0.49638  0.16009  0.42782  1.0000
  H   H47       1.0  0.50340  0.14712  0.48565  1.0000
  C   C93       1.0  0.48665  0.26679  0.34951  1.0000
  C   C94       1.0  0.49834  0.36110  0.34508  1.0000
  C   C95       1.0  0.49643  0.33854  0.42818  1.0000
  C   C96       1.0  0.49060  0.29127  0.43192  1.0000
  C   C97       1.0  0.49234  0.26952  0.51403  1.0000
  C   C98       1.0  0.49234  0.22496  0.51395  1.0000
  H   H48       1.0  0.50340  0.35846  0.48608  1.0000
  O   O9        1.0  0.49788  0.29274  0.59398  1.0000
  H   H49       1.0  0.46480  0.28243  0.61556  1.0000
  O   O10       1.0  0.49787  0.20721  0.59381  1.0000
  H   H50       1.0  0.46478  0.18444  0.61536  1.0000
  C   C99       1.0  0.87170  0.36110  0.34522  1.0000
  C   C100      1.0  0.78904  0.26682  0.34970  1.0000
  C   C101      1.0  0.80965  0.29127  0.43210  1.0000
  C   C102      1.0  0.85114  0.33851  0.42834  1.0000
  H   H51       1.0  0.86409  0.35846  0.48621  1.0000
  C   C103      1.0  0.74441  0.22219  0.34964  1.0000
  C   C104      1.0  0.65013  0.13960  0.34500  1.0000
  C   C105      1.0  0.67267  0.16009  0.42819  1.0000
  C   C106      1.0  0.71992  0.20156  0.43200  1.0000
  C   C107      1.0  0.74166  0.22495  0.51419  1.0000
  C   C108      1.0  0.78623  0.26950  0.51423  1.0000
  H   H52       1.0  0.65271  0.14710  0.48603  1.0000
  O   O11       1.0  0.71844  0.20717  0.59411  1.0000
  H   H53       1.0  0.72877  0.18438  0.61552  1.0000
  O   O12       1.0  0.80398  0.29268  0.59419  1.0000
  H   H54       1.0  0.82675  0.28234  0.61561  1.0000
