data_image0
_chemical_formula_structural       C8HC7HCH4N3C8HC7HCH4N4C2HC6H3CHC2HC6H3CHC2HC6H3CHC2HC6H3CHC2HC6H3CHC2HC6H3CHC8HC7HCH4N5C2NCNC2H3CH3CHC2NCNC2H3CH3CHC2NCNC2H3CH3CHC2NCNC2H3CH3CHC2NCNC2H3CH3CHC2NCNC2H3CH3CH
_chemical_formula_sum              "C144 H90 N24"
_cell_length_a       38.1039
_cell_length_b       38.104
_cell_length_c       14.9932
_cell_angle_alpha    90.0002
_cell_angle_beta     89.9998
_cell_angle_gamma    120

_space_group_name_H-M_alt    "P 1"
_space_group_IT_number       1

loop_
  _space_group_symop_operation_xyz
  'x, y, z'

loop_
  _atom_site_type_symbol
  _atom_site_label
  _atom_site_symmetry_multiplicity
  _atom_site_fract_x
  _atom_site_fract_y
  _atom_site_fract_z
  _atom_site_occupancy
  C   C1        1.0  0.55293  0.57842  0.33801  1.0000
  C   C2        1.0  0.59079  0.57925  0.33847  1.0000
  C   C3        1.0  0.62769  0.61687  0.34009  1.0000
  C   C4        1.0  0.62625  0.65314  0.33809  1.0000
  C   C5        1.0  0.58923  0.65308  0.33611  1.0000
  C   C6        1.0  0.55232  0.61555  0.33783  1.0000
  C   C7        1.0  0.59055  0.54203  0.33861  1.0000
  C   C8        1.0  0.51450  0.61402  0.33803  1.0000
  H   H1        1.0  0.65276  0.68033  0.33818  1.0000
  C   C9        1.0  0.51573  0.54055  0.33799  1.0000
  C   C10       1.0  0.51634  0.50343  0.33780  1.0000
  C   C11       1.0  0.47944  0.46589  0.33603  1.0000
  C   C12       1.0  0.44241  0.46583  0.33799  1.0000
  C   C13       1.0  0.44098  0.50211  0.33997  1.0000
  C   C14       1.0  0.47788  0.53973  0.33839  1.0000
  C   C15       1.0  0.55416  0.50496  0.33804  1.0000
  H   H2        1.0  0.41591  0.43865  0.33806  1.0000
  C   C16       1.0  0.47811  0.57695  0.33855  1.0000
  H   H3        1.0  0.55583  0.47898  0.33772  1.0000
  H   H4        1.0  0.61703  0.54129  0.33902  1.0000
  H   H5        1.0  0.45164  0.57769  0.33893  1.0000
  H   H6        1.0  0.51284  0.64000  0.33771  1.0000
  N   N1        1.0  0.58928  0.68809  0.33873  1.0000
  N   N2        1.0  0.40557  0.50137  0.34009  1.0000
  N   N3        1.0  0.47939  0.43089  0.33868  1.0000
  C   C17       1.0  0.51539  0.05915  0.33803  1.0000
  C   C18       1.0  0.51457  0.09618  0.33846  1.0000
  C   C19       1.0  0.47695  0.09546  0.34006  1.0000
  C   C20       1.0  0.44067  0.05775  0.33809  1.0000
  C   C21       1.0  0.44073  0.02078  0.33618  1.0000
  C   C22       1.0  0.47827  0.02142  0.33787  1.0000
  C   C23       1.0  0.55179  0.13316  0.33859  1.0000
  C   C24       1.0  0.47980  0.98513  0.33809  1.0000
  H   H7        1.0  0.41349  0.05707  0.33817  1.0000
  C   C25       1.0  0.55327  0.05982  0.33801  1.0000
  C   C26       1.0  0.59039  0.09755  0.33783  1.0000
  C   C27       1.0  0.62793  0.09819  0.33610  1.0000
  C   C28       1.0  0.62799  0.06122  0.33803  1.0000
  C   C29       1.0  0.59171  0.02351  0.34001  1.0000
  C   C30       1.0  0.55409  0.02279  0.33843  1.0000
  C   C31       1.0  0.58886  0.13384  0.33805  1.0000
  H   H8        1.0  0.65517  0.06190  0.33810  1.0000
  C   C32       1.0  0.51687  0.98581  0.33859  1.0000
  H   H9        1.0  0.61484  0.16149  0.33773  1.0000
  H   H10       1.0  0.55254  0.16038  0.33898  1.0000
  H   H11       1.0  0.51613  0.95859  0.33898  1.0000
  H   H12       1.0  0.45382  0.95748  0.33778  1.0000
  N   N4        1.0  0.40573  0.98583  0.33879  1.0000
  N   N5        1.0  0.47621  0.13013  0.34015  1.0000
  N   N6        1.0  0.59245  0.98884  0.34011  1.0000
  N   N7        1.0  0.66293  0.13314  0.33872  1.0000
  C   C33       1.0  0.29251  0.49266  0.26491  1.0000
  C   C34       1.0  0.32772  0.48992  0.27828  1.0000
  H   H13       1.0  0.34554  0.49276  0.22442  1.0000
  C   C35       1.0  0.23102  0.48806  0.32828  1.0000
  C   C36       1.0  0.15692  0.48678  0.30831  1.0000
  C   C37       1.0  0.18235  0.49384  0.23369  1.0000
  C   C38       1.0  0.21962  0.49465  0.24258  1.0000
  C   C39       1.0  0.24516  0.50081  0.16891  1.0000
  C   C40       1.0  0.28131  0.49979  0.17997  1.0000
  H   H14       1.0  0.23736  0.50546  0.10651  1.0000
  H   H15       1.0  0.29905  0.50375  0.12538  1.0000
  H   H16       1.0  0.17341  0.49781  0.17178  1.0000
  C   C41       1.0  0.11930  0.48302  0.29459  1.0000
  H   H17       1.0  0.10114  0.46350  0.24867  1.0000
  C   C42       1.0  0.60114  0.88448  0.26491  1.0000
  C   C43       1.0  0.60388  0.92243  0.27829  1.0000
  H   H18       1.0  0.60104  0.93741  0.22444  1.0000
  C   C44       1.0  0.60577  0.82760  0.32826  1.0000
  C   C45       1.0  0.60707  0.75479  0.30825  1.0000
  C   C46       1.0  0.60000  0.77317  0.23365  1.0000
  C   C47       1.0  0.59918  0.80962  0.24256  1.0000
  C   C48       1.0  0.59300  0.82899  0.16889  1.0000
  C   C49       1.0  0.59401  0.86615  0.17996  1.0000
  H   H19       1.0  0.58835  0.81654  0.10649  1.0000
  H   H20       1.0  0.59005  0.87994  0.12539  1.0000
  H   H21       1.0  0.59601  0.76024  0.17174  1.0000
  C   C50       1.0  0.61082  0.72093  0.29455  1.0000
  H   H22       1.0  0.63032  0.72227  0.24858  1.0000
  C   C51       1.0  0.20933  0.80129  0.26497  1.0000
  C   C52       1.0  0.17138  0.76609  0.27833  1.0000
  H   H23       1.0  0.15638  0.74828  0.22447  1.0000
  C   C53       1.0  0.26622  0.86278  0.32834  1.0000
  C   C54       1.0  0.33903  0.93690  0.30836  1.0000
  C   C55       1.0  0.32066  0.91146  0.23374  1.0000
  C   C56       1.0  0.28420  0.87419  0.24264  1.0000
  C   C57       1.0  0.26483  0.84865  0.16896  1.0000
  C   C58       1.0  0.22766  0.81250  0.18003  1.0000
  H   H24       1.0  0.27727  0.85646  0.10656  1.0000
  H   H25       1.0  0.21387  0.79476  0.12544  1.0000
  H   H26       1.0  0.33357  0.92040  0.17184  1.0000
  C   C59       1.0  0.37288  0.97452  0.29464  1.0000
  H   H27       1.0  0.37153  0.99267  0.24869  1.0000
  C   C60       1.0  0.77614  0.62631  0.26495  1.0000
  C   C61       1.0  0.74095  0.62907  0.27835  1.0000
  H   H28       1.0  0.72310  0.62621  0.22452  1.0000
  C   C62       1.0  0.83764  0.63091  0.32828  1.0000
  C   C63       1.0  0.91175  0.63221  0.30821  1.0000
  C   C64       1.0  0.88630  0.62515  0.23362  1.0000
  C   C65       1.0  0.84903  0.62433  0.24255  1.0000
  C   C66       1.0  0.82347  0.61815  0.16891  1.0000
  C   C67       1.0  0.78733  0.61917  0.18000  1.0000
  H   H29       1.0  0.83128  0.61354  0.10648  1.0000
  H   H30       1.0  0.76959  0.61525  0.12542  1.0000
  H   H31       1.0  0.89523  0.62117  0.17170  1.0000
  C   C68       1.0  0.94936  0.63597  0.29446  1.0000
  H   H32       1.0  0.96752  0.65550  0.24856  1.0000
  C   C69       1.0  0.46752  0.23449  0.26492  1.0000
  C   C70       1.0  0.46478  0.19654  0.27831  1.0000
  H   H33       1.0  0.46762  0.18155  0.22446  1.0000
  C   C71       1.0  0.46292  0.29138  0.32827  1.0000
  C   C72       1.0  0.46162  0.36419  0.30825  1.0000
  C   C73       1.0  0.46869  0.34582  0.23365  1.0000
  C   C74       1.0  0.46950  0.30936  0.24256  1.0000
  C   C75       1.0  0.47566  0.28998  0.16890  1.0000
  C   C76       1.0  0.47465  0.25282  0.17997  1.0000
  H   H34       1.0  0.48031  0.30242  0.10649  1.0000
  H   H35       1.0  0.47861  0.23902  0.12540  1.0000
  H   H36       1.0  0.47266  0.35872  0.17174  1.0000
  C   C77       1.0  0.45785  0.39804  0.29452  1.0000
  H   H37       1.0  0.43836  0.39669  0.24853  1.0000
  C   C78       1.0  0.85935  0.31767  0.26496  1.0000
  C   C79       1.0  0.89729  0.35287  0.27836  1.0000
  H   H38       1.0  0.91228  0.37071  0.22452  1.0000
  C   C80       1.0  0.80246  0.25617  0.32830  1.0000
  C   C81       1.0  0.72964  0.18206  0.30827  1.0000
  C   C82       1.0  0.74802  0.20750  0.23367  1.0000
  C   C83       1.0  0.78448  0.24477  0.24259  1.0000
  C   C84       1.0  0.80386  0.27033  0.16893  1.0000
  C   C85       1.0  0.84102  0.30647  0.18002  1.0000
  H   H39       1.0  0.79141  0.26253  0.10652  1.0000
  H   H40       1.0  0.85481  0.32423  0.12544  1.0000
  H   H41       1.0  0.73510  0.19857  0.17176  1.0000
  C   C86       1.0  0.69578  0.14445  0.29455  1.0000
  H   H42       1.0  0.69712  0.12629  0.24859  1.0000
  C   C87       1.0  0.03467  0.54089  0.33803  1.0000
  C   C88       1.0  0.99764  0.50303  0.33847  1.0000
  C   C89       1.0  0.99836  0.46613  0.34009  1.0000
  C   C90       1.0  0.03607  0.46757  0.33812  1.0000
  C   C91       1.0  0.07304  0.50460  0.33619  1.0000
  C   C92       1.0  0.07240  0.54150  0.33787  1.0000
  C   C93       1.0  0.96066  0.50326  0.33857  1.0000
  C   C94       1.0  0.10869  0.57932  0.33809  1.0000
  H   H43       1.0  0.03675  0.44106  0.33821  1.0000
  C   C95       1.0  0.03399  0.57809  0.33799  1.0000
  C   C96       1.0  0.99626  0.57748  0.33778  1.0000
  C   C97       1.0  0.99562  0.61438  0.33600  1.0000
  C   C98       1.0  0.03258  0.65140  0.33799  1.0000
  C   C99       1.0  0.07030  0.65284  0.34002  1.0000
  C   C100      1.0  0.07102  0.61594  0.33843  1.0000
  C   C101      1.0  0.95997  0.53966  0.33800  1.0000
  H   H44       1.0  0.03191  0.67791  0.33805  1.0000
  C   C102      1.0  0.10800  0.61571  0.33860  1.0000
  H   H45       1.0  0.93232  0.53798  0.33766  1.0000
  H   H46       1.0  0.93344  0.47679  0.33898  1.0000
  H   H47       1.0  0.13522  0.64219  0.33901  1.0000
  H   H48       1.0  0.13634  0.58099  0.33779  1.0000
  N   N8        1.0  0.10799  0.50455  0.33877  1.0000
  N   N9        1.0  0.96369  0.43072  0.34019  1.0000
  N   N10       1.0  0.10497  0.68826  0.34013  1.0000
  N   N11       1.0  0.96067  0.61443  0.33861  1.0000
  N   N12       1.0  0.66310  0.61761  0.34021  1.0000
  C   C103      1.0  0.33788  0.48189  0.36384  1.0000
  C   C104      1.0  0.31181  0.47715  0.43646  1.0000
  N   N13       1.0  0.27813  0.47984  0.42052  1.0000
  C   C105      1.0  0.26730  0.48709  0.33937  1.0000
  N   N14       1.0  0.20592  0.48141  0.39839  1.0000
  C   C106      1.0  0.16990  0.48055  0.39283  1.0000
  C   C107      1.0  0.31780  0.46951  0.53061  1.0000
  H   H49       1.0  0.34612  0.46963  0.54173  1.0000
  H   H50       1.0  0.29283  0.44011  0.55139  1.0000
  H   H51       1.0  0.31808  0.49296  0.57297  1.0000
  C   C108      1.0  0.14579  0.47151  0.47580  1.0000
  H   H52       1.0  0.16071  0.46588  0.53169  1.0000
  H   H53       1.0  0.11609  0.44459  0.46643  1.0000
  H   H54       1.0  0.14184  0.49711  0.49332  1.0000
  C   C109      1.0  0.37075  0.47605  0.37292  1.0000
  H   H55       1.0  0.36712  0.45198  0.40656  1.0000
  C   C110      1.0  0.61193  0.94063  0.36385  1.0000
  C   C111      1.0  0.61668  0.91930  0.43645  1.0000
  N   N15       1.0  0.61398  0.88292  0.42050  1.0000
  C   C112      1.0  0.60674  0.86485  0.33936  1.0000
  N   N16       1.0  0.61242  0.80915  0.39835  1.0000
  C   C113      1.0  0.61328  0.77399  0.39278  1.0000
  C   C114      1.0  0.62431  0.93293  0.53062  1.0000
  H   H56       1.0  0.62418  0.96112  0.54174  1.0000
  H   H57       1.0  0.65371  0.93735  0.55138  1.0000
  H   H58       1.0  0.60087  0.90975  0.57297  1.0000
  C   C115      1.0  0.62235  0.75894  0.47575  1.0000
  H   H59       1.0  0.62797  0.77948  0.53165  1.0000
  H   H60       1.0  0.64927  0.75617  0.46635  1.0000
  H   H61       1.0  0.59676  0.72938  0.49328  1.0000
  C   C116      1.0  0.61777  0.97934  0.37294  1.0000
  H   H62       1.0  0.64183  0.99977  0.40660  1.0000
  C   C117      1.0  0.15316  0.75595  0.36387  1.0000
  C   C118      1.0  0.17450  0.78201  0.43650  1.0000
  N   N17       1.0  0.21088  0.81568  0.42057  1.0000
  C   C119      1.0  0.22896  0.82651  0.33943  1.0000
  N   N18       1.0  0.28467  0.88789  0.39845  1.0000
  C   C120      1.0  0.31983  0.92391  0.39288  1.0000
  C   C121      1.0  0.16087  0.77602  0.53067  1.0000
  H   H63       1.0  0.13266  0.74771  0.54177  1.0000
  H   H64       1.0  0.15647  0.80101  0.55145  1.0000
  H   H65       1.0  0.18403  0.77573  0.57302  1.0000
  C   C122      1.0  0.33488  0.94803  0.47585  1.0000
  H   H66       1.0  0.31434  0.93310  0.53175  1.0000
  H   H67       1.0  0.33764  0.97771  0.46647  1.0000
  H   H68       1.0  0.36444  0.95200  0.49338  1.0000
  C   C123      1.0  0.11446  0.72307  0.37299  1.0000
  H   H69       1.0  0.09401  0.72669  0.40662  1.0000
  C   C124      1.0  0.73079  0.63710  0.36393  1.0000
  C   C125      1.0  0.75687  0.64184  0.43652  1.0000
  N   N19       1.0  0.79055  0.63914  0.42055  1.0000
  C   C126      1.0  0.80136  0.63189  0.33939  1.0000
  N   N20       1.0  0.86275  0.63756  0.39835  1.0000
  C   C127      1.0  0.89878  0.63842  0.39275  1.0000
  C   C128      1.0  0.75089  0.64947  0.53069  1.0000
  H   H70       1.0  0.72258  0.64936  0.54183  1.0000
  H   H71       1.0  0.77587  0.67887  0.55147  1.0000
  H   H72       1.0  0.75061  0.62602  0.57303  1.0000
  C   C129      1.0  0.92290  0.64748  0.47570  1.0000
  H   H73       1.0  0.90798  0.65311  0.53162  1.0000
  H   H74       1.0  0.95259  0.67441  0.46630  1.0000
  H   H75       1.0  0.92687  0.62190  0.49322  1.0000
  C   C130      1.0  0.69791  0.64292  0.37306  1.0000
  H   H76       1.0  0.70155  0.66700  0.40666  1.0000
  C   C131      1.0  0.45674  0.17835  0.36387  1.0000
  C   C132      1.0  0.45200  0.19968  0.43648  1.0000
  N   N21       1.0  0.45470  0.23606  0.42052  1.0000
  C   C133      1.0  0.46194  0.25413  0.33937  1.0000
  N   N22       1.0  0.45626  0.30983  0.39836  1.0000
  C   C134      1.0  0.45539  0.34499  0.39278  1.0000
  C   C135      1.0  0.44437  0.18606  0.53064  1.0000
  H   H77       1.0  0.44449  0.15786  0.54177  1.0000
  H   H78       1.0  0.41496  0.18163  0.55141  1.0000
  H   H79       1.0  0.46781  0.20923  0.57299  1.0000
  C   C136      1.0  0.44634  0.36005  0.47574  1.0000
  H   H80       1.0  0.44072  0.33951  0.53165  1.0000
  H   H81       1.0  0.41942  0.36283  0.46637  1.0000
  H   H82       1.0  0.47194  0.38961  0.49326  1.0000
  C   C137      1.0  0.45090  0.13963  0.37296  1.0000
  H   H83       1.0  0.42683  0.11920  0.40662  1.0000
  C   C138      1.0  0.91549  0.36303  0.36392  1.0000
  C   C139      1.0  0.89415  0.33694  0.43652  1.0000
  N   N23       1.0  0.85778  0.30326  0.42056  1.0000
  C   C140      1.0  0.83971  0.29244  0.33941  1.0000
  N   N24       1.0  0.78400  0.23106  0.39839  1.0000
  C   C141      1.0  0.74883  0.19504  0.39281  1.0000
  C   C142      1.0  0.90777  0.34293  0.53069  1.0000
  H   H84       1.0  0.93597  0.37125  0.54183  1.0000
  H   H85       1.0  0.91220  0.31796  0.55145  1.0000
  H   H86       1.0  0.88459  0.34319  0.57303  1.0000
  C   C143      1.0  0.73377  0.17092  0.47576  1.0000
  H   H87       1.0  0.75432  0.18584  0.53167  1.0000
  H   H88       1.0  0.73100  0.14123  0.46637  1.0000
  H   H89       1.0  0.70421  0.16695  0.49329  1.0000
  C   C144      1.0  0.95419  0.39591  0.37304  1.0000
  H   H90       1.0  0.97463  0.39228  0.40670  1.0000
