data_image0
_chemical_formula_structural       C3HC4H2CH3C3HC4H2CH3C3HC4H2CH3C5H3CH3C5H3CH3C5H3CH3CNCNCNC18H12CNCNCNC18H12CNCNCNC18H12CNCNCNC18H12C5H3CH3C5H3CH3C5H3CH3C3HC4H2CH3C3HC4H2CH3C3HC4H2CH3
_chemical_formula_sum              "C168 H120 N12"
_cell_length_a       56.6759
_cell_length_b       56.6758
_cell_length_c       14.988
_cell_angle_alpha    90
_cell_angle_beta     90
_cell_angle_gamma    120

_space_group_name_H-M_alt    "P 1"
_space_group_IT_number       1

loop_
  _space_group_symop_operation_xyz
  'x, y, z'

loop_
  _atom_site_type_symbol
  _atom_site_label
  _atom_site_symmetry_multiplicity
  _atom_site_fract_x
  _atom_site_fract_y
  _atom_site_fract_z
  _atom_site_occupancy
  C   C1        1.0  0.22585  0.11318  0.32846  1.0000
  C   C2        1.0  0.24035  0.13913  0.28827  1.0000
  C   C3        1.0  0.26897  0.15362  0.28802  1.0000
  H   H1        1.0  0.27874  0.17212  0.25659  1.0000
  C   C4        1.0  0.19691  0.09919  0.32518  1.0000
  C   C5        1.0  0.13887  0.07066  0.32865  1.0000
  C   C6        1.0  0.15319  0.06843  0.25479  1.0000
  C   C7        1.0  0.18203  0.08256  0.25148  1.0000
  H   H2        1.0  0.14235  0.05652  0.20181  1.0000
  H   H3        1.0  0.23017  0.14763  0.25793  1.0000
  C   C8        1.0  0.19604  0.07960  0.17183  1.0000
  H   H4        1.0  0.20899  0.07134  0.19171  1.0000
  H   H5        1.0  0.20866  0.09946  0.14074  1.0000
  H   H6        1.0  0.18178  0.06601  0.12152  1.0000
  C   C9        1.0  0.87829  0.11285  0.32845  1.0000
  C   C10       1.0  0.85233  0.10139  0.28826  1.0000
  C   C11       1.0  0.83783  0.11552  0.28807  1.0000
  H   H7        1.0  0.81934  0.10680  0.25659  1.0000
  C   C12       1.0  0.89227  0.09789  0.32517  1.0000
  C   C13       1.0  0.92079  0.06838  0.32866  1.0000
  C   C14       1.0  0.92302  0.08493  0.25479  1.0000
  C   C15       1.0  0.90890  0.09964  0.25147  1.0000
  H   H8        1.0  0.93494  0.08600  0.20183  1.0000
  H   H9        1.0  0.84384  0.08272  0.25791  1.0000
  C   C16       1.0  0.91186  0.11661  0.17182  1.0000
  H   H10       1.0  0.92012  0.13782  0.19171  1.0000
  H   H11       1.0  0.89200  0.10937  0.14073  1.0000
  H   H12       1.0  0.92545  0.11594  0.12152  1.0000
  C   C17       1.0  0.87860  0.76562  0.32840  1.0000
  C   C18       1.0  0.89005  0.75111  0.28820  1.0000
  C   C19       1.0  0.87591  0.72249  0.28800  1.0000
  H   H13       1.0  0.88463  0.71271  0.25657  1.0000
  C   C20       1.0  0.89357  0.79456  0.32511  1.0000
  C   C21       1.0  0.92308  0.85260  0.32863  1.0000
  C   C22       1.0  0.90654  0.83829  0.25475  1.0000
  C   C23       1.0  0.89182  0.80945  0.25143  1.0000
  H   H14       1.0  0.90546  0.84913  0.20180  1.0000
  H   H15       1.0  0.90873  0.76129  0.25787  1.0000
  C   C24       1.0  0.87484  0.79545  0.17179  1.0000
  H   H16       1.0  0.85363  0.78250  0.19167  1.0000
  H   H17       1.0  0.88208  0.78282  0.14068  1.0000
  H   H18       1.0  0.87552  0.80971  0.12149  1.0000
  C   C25       1.0  0.63426  0.15695  0.32100  1.0000
  C   C26       1.0  0.62648  0.17461  0.28085  1.0000
  C   C27       1.0  0.59917  0.16886  0.28085  1.0000
  C   C28       1.0  0.53395  0.13360  0.26679  1.0000
  C   C29       1.0  0.51149  0.13768  0.27374  1.0000
  H   H19       1.0  0.53830  0.12853  0.20583  1.0000
  H   H20       1.0  0.50037  0.13569  0.21754  1.0000
  H   H21       1.0  0.64130  0.19274  0.25489  1.0000
  C   C30       1.0  0.59296  0.18962  0.24414  1.0000
  H   H22       1.0  0.61102  0.20771  0.21888  1.0000
  H   H23       1.0  0.58403  0.19627  0.29592  1.0000
  H   H24       1.0  0.57860  0.18088  0.18895  1.0000
  C   C31       1.0  0.83448  0.47750  0.32099  1.0000
  C   C32       1.0  0.81683  0.45205  0.28087  1.0000
  C   C33       1.0  0.82259  0.43050  0.28080  1.0000
  C   C34       1.0  0.85787  0.40055  0.26667  1.0000
  C   C35       1.0  0.85376  0.37400  0.27361  1.0000
  H   H25       1.0  0.86298  0.40997  0.20573  1.0000
  H   H26       1.0  0.85584  0.36489  0.21751  1.0000
  H   H27       1.0  0.79871  0.44874  0.25478  1.0000
  C   C36       1.0  0.80184  0.40354  0.24397  1.0000
  H   H28       1.0  0.78376  0.40352  0.21869  1.0000
  H   H29       1.0  0.79519  0.38795  0.29568  1.0000
  H   H30       1.0  0.81061  0.39795  0.18877  1.0000
  C   C37       1.0  0.51394  0.35723  0.32088  1.0000
  C   C38       1.0  0.53939  0.36502  0.28074  1.0000
  C   C39       1.0  0.56094  0.39233  0.28079  1.0000
  C   C40       1.0  0.59085  0.45759  0.26681  1.0000
  C   C41       1.0  0.61740  0.48004  0.27375  1.0000
  H   H31       1.0  0.58149  0.45322  0.20575  1.0000
  H   H32       1.0  0.62656  0.49114  0.21754  1.0000
  H   H33       1.0  0.54272  0.35021  0.25481  1.0000
  C   C42       1.0  0.58792  0.39856  0.24405  1.0000
  H   H34       1.0  0.58794  0.38051  0.21870  1.0000
  H   H35       1.0  0.60349  0.40747  0.29584  1.0000
  H   H36       1.0  0.59354  0.41294  0.18893  1.0000
  C   C43       1.0  0.98041  0.96912  0.33600  1.0000
  N   N1        1.0  0.00810  0.98376  0.33590  1.0000
  C   C44       1.0  0.02235  0.01147  0.33598  1.0000
  N   N2        1.0  0.00771  0.02452  0.33591  1.0000
  C   C45       1.0  0.97999  0.01106  0.33601  1.0000
  N   N3        1.0  0.96695  0.98337  0.33592  1.0000
  C   C46       1.0  0.05140  0.02622  0.33498  1.0000
  C   C47       1.0  0.06647  0.01309  0.31516  1.0000
  C   C48       1.0  0.09513  0.02769  0.31262  1.0000
  C   C49       1.0  0.10984  0.05593  0.33110  1.0000
  C   C50       1.0  0.09492  0.06909  0.35196  1.0000
  C   C51       1.0  0.06624  0.05454  0.35314  1.0000
  C   C52       1.0  0.96610  0.94007  0.33500  1.0000
  C   C53       1.0  0.97959  0.92523  0.35315  1.0000
  C   C54       1.0  0.96546  0.89655  0.35198  1.0000
  C   C55       1.0  0.93738  0.88163  0.33111  1.0000
  C   C56       1.0  0.92385  0.89634  0.31265  1.0000
  C   C57       1.0  0.93790  0.92500  0.31520  1.0000
  C   C58       1.0  0.96525  0.02536  0.33502  1.0000
  C   C59       1.0  0.93693  0.01188  0.35320  1.0000
  C   C60       1.0  0.92237  0.02600  0.35201  1.0000
  C   C61       1.0  0.93553  0.05408  0.33113  1.0000
  C   C62       1.0  0.96377  0.06761  0.31266  1.0000
  C   C63       1.0  0.97838  0.05357  0.31523  1.0000
  H   H37       1.0  0.97605  0.88666  0.36476  1.0000
  H   H38       1.0  0.99992  0.93512  0.36824  1.0000
  H   H39       1.0  0.90345  0.88628  0.29837  1.0000
  H   H40       1.0  0.92721  0.93470  0.30115  1.0000
  H   H41       1.0  0.92649  0.99155  0.36826  1.0000
  H   H42       1.0  0.90189  0.01541  0.36480  1.0000
  H   H43       1.0  0.99877  0.06426  0.30114  1.0000
  H   H44       1.0  0.97411  0.08801  0.29838  1.0000
  H   H45       1.0  0.05635  0.06498  0.36824  1.0000
  H   H46       1.0  0.10481  0.08957  0.36479  1.0000
  H   H47       1.0  0.10519  0.01735  0.29834  1.0000
  H   H48       1.0  0.05677  0.99270  0.30110  1.0000
  C   C64       1.0  0.44240  0.19989  0.34169  1.0000
  N   N4        1.0  0.41478  0.18694  0.33519  1.0000
  C   C65       1.0  0.40075  0.20072  0.33243  1.0000
  N   N5        1.0  0.41538  0.22850  0.33613  1.0000
  C   C66       1.0  0.44300  0.24243  0.34298  1.0000
  N   N6        1.0  0.45558  0.22746  0.34533  1.0000
  C   C67       1.0  0.37171  0.18646  0.32869  1.0000
  C   C68       1.0  0.35672  0.15827  0.30866  1.0000
  C   C69       1.0  0.32806  0.14402  0.30763  1.0000
  C   C70       1.0  0.31314  0.15730  0.32711  1.0000
  C   C71       1.0  0.32807  0.18551  0.34647  1.0000
  C   C72       1.0  0.35674  0.19979  0.34705  1.0000
  C   C73       1.0  0.45771  0.18617  0.34567  1.0000
  C   C74       1.0  0.44605  0.15802  0.32658  1.0000
  C   C75       1.0  0.46190  0.14515  0.32878  1.0000
  C   C76       1.0  0.48976  0.15992  0.35255  1.0000
  C   C77       1.0  0.50143  0.18799  0.37147  1.0000
  C   C78       1.0  0.48576  0.20080  0.36807  1.0000
  C   C79       1.0  0.45916  0.27137  0.34554  1.0000
  C   C80       1.0  0.48619  0.28388  0.37855  1.0000
  C   C81       1.0  0.50362  0.31213  0.37287  1.0000
  C   C82       1.0  0.49480  0.32906  0.33354  1.0000
  C   C83       1.0  0.46737  0.31698  0.30521  1.0000
  C   C84       1.0  0.44981  0.28852  0.31111  1.0000
  H   H49       1.0  0.45291  0.12485  0.31379  1.0000
  H   H50       1.0  0.42595  0.14665  0.30923  1.0000
  H   H51       1.0  0.52173  0.19963  0.38638  1.0000
  H   H52       1.0  0.49538  0.22117  0.38239  1.0000
  H   H53       1.0  0.49385  0.27253  0.40562  1.0000
  H   H54       1.0  0.52315  0.32014  0.39602  1.0000
  H   H55       1.0  0.43056  0.28032  0.28553  1.0000
  H   H56       1.0  0.46041  0.32861  0.27562  1.0000
  H   H57       1.0  0.36652  0.22004  0.36321  1.0000
  H   H58       1.0  0.31817  0.19586  0.36264  1.0000
  H   H59       1.0  0.31816  0.12375  0.29161  1.0000
  H   H60       1.0  0.36650  0.14769  0.29406  1.0000
  C   C85       1.0  0.79159  0.24270  0.34171  1.0000
  N   N7        1.0  0.80454  0.22803  0.33520  1.0000
  C   C86       1.0  0.79076  0.20022  0.33246  1.0000
  N   N8        1.0  0.76297  0.18707  0.33619  1.0000
  C   C87       1.0  0.74905  0.20076  0.34306  1.0000
  N   N9        1.0  0.76402  0.22831  0.34538  1.0000
  C   C88       1.0  0.80501  0.18544  0.32870  1.0000
  C   C89       1.0  0.83320  0.19864  0.30865  1.0000
  C   C90       1.0  0.84745  0.18422  0.30762  1.0000
  C   C91       1.0  0.83417  0.15602  0.32712  1.0000
  C   C92       1.0  0.80597  0.14275  0.34651  1.0000
  C   C93       1.0  0.79168  0.15713  0.34706  1.0000
  C   C94       1.0  0.80532  0.27173  0.34565  1.0000
  C   C95       1.0  0.83348  0.28822  0.32665  1.0000
  C   C96       1.0  0.84634  0.31694  0.32876  1.0000
  C   C97       1.0  0.83156  0.33003  0.35242  1.0000
  C   C98       1.0  0.80349  0.31364  0.37135  1.0000
  C   C99       1.0  0.79068  0.28515  0.36797  1.0000
  C   C100      1.0  0.72011  0.18799  0.34563  1.0000
  C   C101      1.0  0.70761  0.20250  0.37868  1.0000
  C   C102      1.0  0.67936  0.19169  0.37305  1.0000
  C   C103      1.0  0.66242  0.16595  0.33365  1.0000
  C   C104      1.0  0.67450  0.15062  0.30519  1.0000
  C   C105      1.0  0.70296  0.16150  0.31116  1.0000
  H   H61       1.0  0.86664  0.32824  0.31383  1.0000
  H   H62       1.0  0.84484  0.27948  0.30931  1.0000
  H   H63       1.0  0.79186  0.32231  0.38620  1.0000
  H   H64       1.0  0.77031  0.27441  0.38226  1.0000
  H   H65       1.0  0.71897  0.22152  0.40579  1.0000
  H   H66       1.0  0.67135  0.20321  0.39623  1.0000
  H   H67       1.0  0.71115  0.15044  0.28554  1.0000
  H   H68       1.0  0.66285  0.13202  0.27565  1.0000
  H   H69       1.0  0.77143  0.14667  0.36325  1.0000
  H   H70       1.0  0.79561  0.12249  0.36268  1.0000
  H   H71       1.0  0.86772  0.19460  0.29159  1.0000
  H   H72       1.0  0.84378  0.21899  0.29405  1.0000
  C   C106      1.0  0.74872  0.54908  0.34176  1.0000
  N   N10       1.0  0.76339  0.57669  0.33525  1.0000
  C   C107      1.0  0.79121  0.59072  0.33250  1.0000
  N   N11       1.0  0.80435  0.57608  0.33622  1.0000
  C   C108      1.0  0.79066  0.54847  0.34308  1.0000
  N   N12       1.0  0.76310  0.53589  0.34542  1.0000
  C   C109      1.0  0.80599  0.61976  0.32874  1.0000
  C   C110      1.0  0.79279  0.63475  0.30869  1.0000
  C   C111      1.0  0.80721  0.66341  0.30765  1.0000
  C   C112      1.0  0.83541  0.67833  0.32712  1.0000
  C   C113      1.0  0.84869  0.66340  0.34649  1.0000
  C   C114      1.0  0.83429  0.63472  0.34709  1.0000
  C   C115      1.0  0.71969  0.53377  0.34572  1.0000
  C   C116      1.0  0.70321  0.54544  0.32662  1.0000
  C   C117      1.0  0.67449  0.52960  0.32880  1.0000
  C   C118      1.0  0.66139  0.50174  0.35251  1.0000
  C   C119      1.0  0.67777  0.49005  0.37146  1.0000
  C   C120      1.0  0.70626  0.50572  0.36808  1.0000
  C   C121      1.0  0.80343  0.53230  0.34565  1.0000
  C   C122      1.0  0.78892  0.50528  0.37867  1.0000
  C   C123      1.0  0.79972  0.48784  0.37297  1.0000
  C   C124      1.0  0.82547  0.49665  0.33364  1.0000
  C   C125      1.0  0.84082  0.52408  0.30535  1.0000
  C   C126      1.0  0.82992  0.54164  0.31118  1.0000
  H   H73       1.0  0.66320  0.53860  0.31381  1.0000
  H   H74       1.0  0.71195  0.56555  0.30930  1.0000
  H   H75       1.0  0.66910  0.46975  0.38634  1.0000
  H   H76       1.0  0.71701  0.49609  0.38241  1.0000
  H   H77       1.0  0.76989  0.49761  0.40571  1.0000
  H   H78       1.0  0.78819  0.46831  0.39610  1.0000
  H   H79       1.0  0.84100  0.56091  0.28571  1.0000
  H   H80       1.0  0.85942  0.53103  0.27578  1.0000
  H   H81       1.0  0.84476  0.62494  0.36325  1.0000
  H   H82       1.0  0.86894  0.67329  0.36266  1.0000
  H   H83       1.0  0.79684  0.67331  0.29162  1.0000
  H   H84       1.0  0.77243  0.62497  0.29410  1.0000
  C   C127      1.0  0.28400  0.14265  0.32792  1.0000
  C   C128      1.0  0.26928  0.11670  0.36871  1.0000
  C   C129      1.0  0.24044  0.10172  0.36974  1.0000
  C   C130      1.0  0.18272  0.10166  0.39879  1.0000
  C   C131      1.0  0.15411  0.08767  0.40030  1.0000
  H   H85       1.0  0.19313  0.11347  0.45249  1.0000
  H   H86       1.0  0.14449  0.08952  0.45542  1.0000
  H   H87       1.0  0.27981  0.10867  0.39949  1.0000
  C   C132      1.0  0.22610  0.07445  0.41320  1.0000
  H   H88       1.0  0.24015  0.06844  0.44079  1.0000
  H   H89       1.0  0.21317  0.05901  0.36467  1.0000
  H   H90       1.0  0.21342  0.07461  0.46769  1.0000
  C   C133      1.0  0.84882  0.14153  0.32792  1.0000
  C   C134      1.0  0.87477  0.15276  0.36868  1.0000
  C   C135      1.0  0.88975  0.13889  0.36972  1.0000
  C   C136      1.0  0.88979  0.08123  0.39876  1.0000
  C   C137      1.0  0.90377  0.06659  0.40028  1.0000
  H   H91       1.0  0.87799  0.07984  0.45249  1.0000
  H   H92       1.0  0.90194  0.05515  0.45545  1.0000
  H   H93       1.0  0.88280  0.17132  0.39949  1.0000
  C   C138      1.0  0.91702  0.15182  0.41319  1.0000
  H   H94       1.0  0.92303  0.17188  0.44079  1.0000
  H   H95       1.0  0.93245  0.15432  0.36466  1.0000
  H   H96       1.0  0.91685  0.13898  0.46768  1.0000
  C   C139      1.0  0.84991  0.70747  0.32790  1.0000
  C   C140      1.0  0.83868  0.72220  0.36866  1.0000
  C   C141      1.0  0.85256  0.75104  0.36969  1.0000
  C   C142      1.0  0.91022  0.80874  0.39871  1.0000
  C   C143      1.0  0.92487  0.83735  0.40024  1.0000
  H   H97       1.0  0.91161  0.79833  0.45244  1.0000
  H   H98       1.0  0.93631  0.84698  0.45541  1.0000
  H   H99       1.0  0.82013  0.71167  0.39948  1.0000
  C   C144      1.0  0.83963  0.76539  0.41316  1.0000
  H   H100      1.0  0.81958  0.75135  0.44077  1.0000
  H   H101      1.0  0.83714  0.77833  0.36463  1.0000
  H   H102      1.0  0.85248  0.77807  0.46765  1.0000
  C   C145      1.0  0.57883  0.14412  0.32055  1.0000
  C   C146      1.0  0.58628  0.12561  0.35583  1.0000
  C   C147      1.0  0.61367  0.13192  0.35591  1.0000
  H   H103      1.0  0.61868  0.11902  0.38754  1.0000
  C   C148      1.0  0.55238  0.14008  0.33865  1.0000
  C   C149      1.0  0.50689  0.14823  0.35300  1.0000
  C   C150      1.0  0.52389  0.15230  0.42732  1.0000
  C   C151      1.0  0.54680  0.14870  0.42139  1.0000
  H   H104      1.0  0.52080  0.16025  0.48464  1.0000
  H   H105      1.0  0.57208  0.10821  0.38722  1.0000
  C   C152      1.0  0.56554  0.15622  0.49935  1.0000
  H   H106      1.0  0.58569  0.17292  0.48153  1.0000
  H   H107      1.0  0.56729  0.13869  0.51977  1.0000
  H   H108      1.0  0.55845  0.16271  0.55704  1.0000
  C   C153      1.0  0.84732  0.43489  0.32055  1.0000
  C   C154      1.0  0.86579  0.46084  0.35595  1.0000
  C   C155      1.0  0.85949  0.48192  0.35604  1.0000
  H   H109      1.0  0.87241  0.49984  0.38758  1.0000
  C   C156      1.0  0.85137  0.41247  0.33851  1.0000
  C   C157      1.0  0.84327  0.35886  0.35290  1.0000
  C   C158      1.0  0.83921  0.37179  0.42724  1.0000
  C   C159      1.0  0.84275  0.39828  0.42126  1.0000
  H   H110      1.0  0.83120  0.36074  0.48447  1.0000
  H   H111      1.0  0.88322  0.46406  0.38724  1.0000
  C   C160      1.0  0.83517  0.40946  0.49919  1.0000
  H   H112      1.0  0.81845  0.41287  0.48132  1.0000
  H   H113      1.0  0.85267  0.42876  0.51967  1.0000
  H   H114      1.0  0.82869  0.39587  0.55687  1.0000
  C   C161      1.0  0.55655  0.41267  0.32058  1.0000
  C   C162      1.0  0.53059  0.40519  0.35594  1.0000
  C   C163      1.0  0.50949  0.37781  0.35580  1.0000
  H   H115      1.0  0.49160  0.37280  0.38758  1.0000
  C   C164      1.0  0.57896  0.43913  0.33859  1.0000
  C   C165      1.0  0.63256  0.48462  0.35296  1.0000
  C   C166      1.0  0.61964  0.46765  0.42733  1.0000
  C   C167      1.0  0.59315  0.44470  0.42135  1.0000
  H   H116      1.0  0.63069  0.47067  0.48454  1.0000
  H   H117      1.0  0.52738  0.41939  0.38726  1.0000
  C   C168      1.0  0.58197  0.42592  0.49924  1.0000
  H   H118      1.0  0.57857  0.40580  0.48132  1.0000
  H   H119      1.0  0.56266  0.42411  0.51973  1.0000
  H   H120      1.0  0.59555  0.43302  0.55693  1.0000
