data_image0
_chemical_formula_structural       C13H9C13H9C13H9C13H9C2NCNO2C2NCNO2C2NCNO2NCHNCHNCHC17H12C17H12C17H12C17H12NCHNCHNCHC2NCNO2C2NCNO2C2NCNO2
_chemical_formula_sum              "C144 H90 N18 O12"
_cell_length_a       56.95
_cell_length_b       56.9333
_cell_length_c       14.9802
_cell_angle_alpha    90
_cell_angle_beta     90
_cell_angle_gamma    120.005

_space_group_name_H-M_alt    "P 1"
_space_group_IT_number       1

loop_
  _space_group_symop_operation_xyz
  'x, y, z'

loop_
  _atom_site_type_symbol
  _atom_site_label
  _atom_site_symmetry_multiplicity
  _atom_site_fract_x
  _atom_site_fract_y
  _atom_site_fract_z
  _atom_site_occupancy
  C   C1        1.0  0.91048  0.83710  0.32320  1.0000
  C   C2        1.0  0.93730  0.89505  0.32411  1.0000
  C   C3        1.0  0.90909  0.87936  0.30861  1.0000
  C   C4        1.0  0.89587  0.85084  0.30873  1.0000
  C   C5        1.0  0.94995  0.92320  0.32156  1.0000
  C   C6        1.0  0.06594  0.02714  0.32539  1.0000
  C   C7        1.0  0.10981  0.03020  0.31248  1.0000
  C   C8        1.0  0.15199  0.07393  0.32640  1.0000
  C   C9        1.0  0.13831  0.04557  0.31212  1.0000
  C   C10       1.0  0.96447  0.04197  0.32724  1.0000
  C   C11       1.0  0.92007  0.03857  0.31605  1.0000
  C   C12       1.0  0.91630  0.07962  0.32695  1.0000
  C   C13       1.0  0.90425  0.05124  0.31535  1.0000
  H   H1        1.0  0.87531  0.84021  0.29970  1.0000
  H   H2        1.0  0.89780  0.88856  0.29799  1.0000
  H   H3        1.0  0.91069  0.01802  0.30667  1.0000
  H   H4        1.0  0.10064  0.00971  0.30180  1.0000
  H   H5        1.0  0.14897  0.03568  0.30287  1.0000
  H   H6        1.0  0.88372  0.03938  0.30771  1.0000
  H   H7        1.0  0.05780  0.01405  0.27508  1.0000
  H   H8        1.0  0.94505  0.93143  0.27142  1.0000
  H   H9        1.0  0.97985  0.04947  0.28419  1.0000
  C   C14       1.0  0.52512  0.36506  0.32150  1.0000
  C   C15       1.0  0.48194  0.30997  0.32313  1.0000
  C   C16       1.0  0.50689  0.31717  0.28149  1.0000
  C   C17       1.0  0.52809  0.34425  0.28073  1.0000
  C   C18       1.0  0.46194  0.28283  0.32520  1.0000
  C   C19       1.0  0.35225  0.18582  0.34142  1.0000
  C   C20       1.0  0.30838  0.18089  0.37449  1.0000
  C   C21       1.0  0.26640  0.13833  0.34007  1.0000
  C   C22       1.0  0.27990  0.16515  0.37415  1.0000
  C   C23       1.0  0.45652  0.17089  0.34092  1.0000
  C   C24       1.0  0.49872  0.18104  0.27236  1.0000
  C   C25       1.0  0.52275  0.15697  0.31613  1.0000
  C   C26       1.0  0.52106  0.17704  0.26503  1.0000
  H   H10       1.0  0.54609  0.34846  0.25192  1.0000
  H   H11       1.0  0.51012  0.30266  0.25291  1.0000
  H   H12       1.0  0.49865  0.19623  0.23584  1.0000
  H   H13       1.0  0.31740  0.20029  0.39890  1.0000
  H   H14       1.0  0.26913  0.17390  0.39695  1.0000
  H   H15       1.0  0.53663  0.18988  0.22426  1.0000
  H   H16       1.0  0.36052  0.20132  0.29895  1.0000
  H   H17       1.0  0.45748  0.27267  0.26774  1.0000
  H   H18       1.0  0.44426  0.16704  0.28883  1.0000
  C   C27       1.0  0.62333  0.16011  0.31800  1.0000
  C   C28       1.0  0.67857  0.17249  0.31912  1.0000
  C   C29       1.0  0.67113  0.19015  0.27805  1.0000
  C   C30       1.0  0.64399  0.18404  0.27754  1.0000
  C   C31       1.0  0.70582  0.18002  0.32147  1.0000
  C   C32       1.0  0.80901  0.17329  0.33876  1.0000
  C   C33       1.0  0.81364  0.13406  0.30597  1.0000
  C   C34       1.0  0.85598  0.13400  0.33852  1.0000
  C   C35       1.0  0.82912  0.12103  0.30501  1.0000
  C   C36       1.0  0.81770  0.28607  0.34496  1.0000
  C   C37       1.0  0.80754  0.31802  0.27529  1.0000
  C   C38       1.0  0.83130  0.36611  0.31929  1.0000
  C   C39       1.0  0.81144  0.34433  0.26776  1.0000
  H   H19       1.0  0.63963  0.19780  0.24930  1.0000
  H   H20       1.0  0.68552  0.20803  0.24994  1.0000
  H   H21       1.0  0.79246  0.30272  0.23855  1.0000
  H   H22       1.0  0.79422  0.12384  0.28172  1.0000
  H   H23       1.0  0.82029  0.10166  0.28060  1.0000
  H   H24       1.0  0.79865  0.34701  0.22656  1.0000
  H   H25       1.0  0.79822  0.17109  0.28386  1.0000
  H   H26       1.0  0.71632  0.18694  0.26497  1.0000
  H   H27       1.0  0.82232  0.27790  0.29401  1.0000
  C   C40       1.0  0.82805  0.46357  0.32127  1.0000
  C   C41       1.0  0.81579  0.50652  0.32242  1.0000
  C   C42       1.0  0.79816  0.48148  0.28098  1.0000
  C   C43       1.0  0.80421  0.46040  0.28045  1.0000
  C   C44       1.0  0.80842  0.52634  0.32440  1.0000
  C   C45       1.0  0.82193  0.63678  0.34150  1.0000
  C   C46       1.0  0.86083  0.68071  0.37445  1.0000
  C   C47       1.0  0.86026  0.72266  0.33935  1.0000
  C   C48       1.0  0.87358  0.70920  0.37378  1.0000
  C   C49       1.0  0.70269  0.53225  0.33997  1.0000
  C   C50       1.0  0.67056  0.49004  0.27145  1.0000
  C   C51       1.0  0.62259  0.46576  0.31676  1.0000
  C   C52       1.0  0.64425  0.46760  0.26477  1.0000
  H   H28       1.0  0.79047  0.44232  0.25192  1.0000
  H   H29       1.0  0.78036  0.47808  0.25250  1.0000
  H   H30       1.0  0.68576  0.49018  0.23441  1.0000
  H   H31       1.0  0.87121  0.67172  0.39904  1.0000
  H   H32       1.0  0.89310  0.72000  0.39651  1.0000
  H   H33       1.0  0.64150  0.45204  0.22386  1.0000
  H   H34       1.0  0.82914  0.62852  0.29894  1.0000
  H   H35       1.0  0.80222  0.53038  0.26716  1.0000
  H   H36       1.0  0.71115  0.54428  0.28739  1.0000
  C   C53       1.0  0.18081  0.08966  0.32678  1.0000
  C   C54       1.0  0.23753  0.12235  0.33784  1.0000
  N   N1        1.0  0.22516  0.10415  0.27069  1.0000
  C   C55       1.0  0.19784  0.08776  0.26158  1.0000
  N   N2        1.0  0.18725  0.07063  0.18664  1.0000
  O   O1        1.0  0.19613  0.05441  0.18367  1.0000
  O   O2        1.0  0.19422  0.08437  0.11604  1.0000
  C   C56       1.0  0.90054  0.09266  0.32706  1.0000
  C   C57       1.0  0.87143  0.12053  0.33684  1.0000
  N   N3        1.0  0.86701  0.10223  0.27124  1.0000
  C   C58       1.0  0.88039  0.08809  0.26285  1.0000
  N   N4        1.0  0.87504  0.07063  0.18943  1.0000
  O   O3        1.0  0.88008  0.08366  0.11761  1.0000
  O   O4        1.0  0.85049  0.05248  0.18871  1.0000
  C   C59       1.0  0.89731  0.80827  0.32427  1.0000
  C   C60       1.0  0.87317  0.75154  0.33658  1.0000
  N   N5        1.0  0.86729  0.76381  0.26921  1.0000
  C   C61       1.0  0.87827  0.79112  0.25952  1.0000
  N   N6        1.0  0.87167  0.80158  0.18437  1.0000
  O   O5        1.0  0.84658  0.79274  0.18168  1.0000
  O   O6        1.0  0.87832  0.79444  0.11391  1.0000
  N   N7        1.0  0.58706  0.16130  0.24307  1.0000
  C   C62       1.0  0.56304  0.16062  0.23646  1.0000
  H   H37       1.0  0.55799  0.16563  0.17687  1.0000
  N   N8        1.0  0.82681  0.42606  0.24631  1.0000
  C   C63       1.0  0.82748  0.40270  0.23969  1.0000
  H   H38       1.0  0.82251  0.39267  0.18006  1.0000
  N   N9        1.0  0.56255  0.40113  0.24564  1.0000
  C   C64       1.0  0.58589  0.42515  0.23836  1.0000
  H   H39       1.0  0.59578  0.43012  0.17847  1.0000
  C   C65       1.0  0.93868  0.85286  0.33937  1.0000
  C   C66       1.0  0.95195  0.88138  0.33894  1.0000
  C   C67       1.0  0.96743  0.93966  0.38397  1.0000
  C   C68       1.0  0.97972  0.96772  0.38107  1.0000
  C   C69       1.0  0.96415  0.98081  0.38019  1.0000
  C   C70       1.0  0.97669  0.00942  0.38023  1.0000
  C   C71       1.0  0.00535  0.02495  0.38306  1.0000
  C   C72       1.0  0.02134  0.01236  0.38352  1.0000
  C   C73       1.0  0.00829  0.98372  0.38350  1.0000
  C   C74       1.0  0.04938  0.02812  0.38744  1.0000
  C   C75       1.0  0.09407  0.04267  0.32818  1.0000
  C   C76       1.0  0.10769  0.07101  0.34289  1.0000
  C   C77       1.0  0.13620  0.08633  0.34296  1.0000
  C   C78       1.0  0.96073  0.02158  0.38168  1.0000
  C   C79       1.0  0.94843  0.05395  0.32908  1.0000
  C   C80       1.0  0.96055  0.08227  0.34097  1.0000
  C   C81       1.0  0.94466  0.09486  0.34095  1.0000
  H   H40       1.0  0.94999  0.84368  0.34973  1.0000
  H   H41       1.0  0.97249  0.89208  0.34889  1.0000
  H   H42       1.0  0.01974  0.97442  0.38567  1.0000
  H   H43       1.0  0.94339  0.96931  0.38004  1.0000
  H   H44       1.0  0.01469  0.04571  0.38513  1.0000
  H   H45       1.0  0.14535  0.10682  0.35306  1.0000
  H   H46       1.0  0.09696  0.08081  0.35288  1.0000
  H   H47       1.0  0.95414  0.11545  0.34938  1.0000
  H   H48       1.0  0.98106  0.09400  0.35015  1.0000
  H   H49       1.0  0.05727  0.04107  0.43814  1.0000
  H   H50       1.0  0.97237  0.93163  0.43455  1.0000
  H   H51       1.0  0.94526  0.01415  0.42446  1.0000
  C   C82       1.0  0.49987  0.35782  0.36156  1.0000
  C   C83       1.0  0.47856  0.33066  0.36249  1.0000
  C   C84       1.0  0.45248  0.26892  0.40181  1.0000
  C   C85       1.0  0.43863  0.24085  0.40290  1.0000
  C   C86       1.0  0.45357  0.22721  0.40722  1.0000
  C   C87       1.0  0.44042  0.19860  0.40661  1.0000
  C   C88       1.0  0.41180  0.18361  0.40261  1.0000
  C   C89       1.0  0.39633  0.19681  0.39841  1.0000
  C   C90       1.0  0.41006  0.22555  0.39933  1.0000
  C   C91       1.0  0.36816  0.18133  0.39692  1.0000
  C   C92       1.0  0.32427  0.17009  0.34184  1.0000
  C   C93       1.0  0.31109  0.14346  0.30721  1.0000
  C   C94       1.0  0.28259  0.12791  0.30600  1.0000
  C   C95       1.0  0.45615  0.18626  0.40843  1.0000
  C   C96       1.0  0.47732  0.16518  0.33169  1.0000
  C   C97       1.0  0.47862  0.14505  0.38296  1.0000
  C   C98       1.0  0.50111  0.14112  0.37543  1.0000
  H   H52       1.0  0.49663  0.37234  0.38963  1.0000
  H   H53       1.0  0.46060  0.32607  0.39241  1.0000
  H   H54       1.0  0.39921  0.23548  0.39769  1.0000
  H   H55       1.0  0.47437  0.23830  0.40933  1.0000
  H   H56       1.0  0.40216  0.16282  0.40241  1.0000
  H   H57       1.0  0.27378  0.10862  0.28092  1.0000
  H   H58       1.0  0.32212  0.13523  0.28218  1.0000
  H   H59       1.0  0.50156  0.12656  0.41423  1.0000
  H   H60       1.0  0.46349  0.13347  0.42724  1.0000
  H   H61       1.0  0.35944  0.16559  0.43855  1.0000
  H   H62       1.0  0.45891  0.27839  0.46011  1.0000
  H   H63       1.0  0.47033  0.19232  0.45565  1.0000
  C   C99       1.0  0.63076  0.14216  0.35740  1.0000
  C   C100      1.0  0.65800  0.14824  0.35805  1.0000
  C   C101      1.0  0.71941  0.18307  0.39798  1.0000
  C   C102      1.0  0.74745  0.19763  0.40089  1.0000
  C   C103      1.0  0.76073  0.22622  0.40521  1.0000
  C   C104      1.0  0.78931  0.24200  0.40832  1.0000
  C   C105      1.0  0.80464  0.22869  0.40864  1.0000
  C   C106      1.0  0.79170  0.20006  0.40460  1.0000
  C   C107      1.0  0.76305  0.18464  0.40110  1.0000
  C   C108      1.0  0.80715  0.18749  0.40748  1.0000
  C   C109      1.0  0.82451  0.16062  0.34025  1.0000
  C   C110      1.0  0.85154  0.17393  0.37186  1.0000
  C   C111      1.0  0.86691  0.16079  0.37145  1.0000
  C   C112      1.0  0.80131  0.27003  0.41020  1.0000
  C   C113      1.0  0.82327  0.31255  0.33538  1.0000
  C   C114      1.0  0.84323  0.33400  0.38698  1.0000
  C   C115      1.0  0.84707  0.36038  0.37917  1.0000
  H   H64       1.0  0.61636  0.12433  0.38537  1.0000
  H   H65       1.0  0.66272  0.13492  0.38761  1.0000
  H   H66       1.0  0.75349  0.16388  0.39914  1.0000
  H   H67       1.0  0.74941  0.23570  0.40487  1.0000
  H   H68       1.0  0.82539  0.23998  0.41165  1.0000
  H   H69       1.0  0.88651  0.17141  0.39346  1.0000
  H   H70       1.0  0.86043  0.19348  0.39467  1.0000
  H   H71       1.0  0.86150  0.37541  0.41828  1.0000
  H   H72       1.0  0.85473  0.33049  0.43170  1.0000
  H   H73       1.0  0.81768  0.18979  0.46300  1.0000
  H   H74       1.0  0.70962  0.17864  0.45604  1.0000
  H   H75       1.0  0.79458  0.27799  0.45587  1.0000
  C   C116      1.0  0.84597  0.48890  0.36107  1.0000
  C   C117      1.0  0.83994  0.51010  0.36176  1.0000
  C   C118      1.0  0.80461  0.53642  0.40073  1.0000
  C   C119      1.0  0.79045  0.55032  0.40219  1.0000
  C   C120      1.0  0.76187  0.53540  0.40649  1.0000
  C   C121      1.0  0.74646  0.54859  0.40616  1.0000
  C   C122      1.0  0.76013  0.57723  0.40240  1.0000
  C   C123      1.0  0.78880  0.59268  0.39829  1.0000
  C   C124      1.0  0.80377  0.57891  0.39898  1.0000
  C   C125      1.0  0.80153  0.62086  0.39696  1.0000
  C   C126      1.0  0.83416  0.66477  0.34181  1.0000
  C   C127      1.0  0.82070  0.67791  0.30688  1.0000
  C   C128      1.0  0.83365  0.70641  0.30532  1.0000
  C   C129      1.0  0.71840  0.53289  0.40796  1.0000
  C   C130      1.0  0.67617  0.51140  0.33108  1.0000
  C   C131      1.0  0.65483  0.50997  0.38322  1.0000
  C   C132      1.0  0.62845  0.48739  0.37623  1.0000
  H   H76       1.0  0.86376  0.49228  0.38922  1.0000
  H   H77       1.0  0.85325  0.52812  0.39155  1.0000
  H   H78       1.0  0.82454  0.58974  0.39734  1.0000
  H   H79       1.0  0.75213  0.51459  0.40841  1.0000
  H   H80       1.0  0.74900  0.58688  0.40232  1.0000
  H   H81       1.0  0.82318  0.71519  0.27997  1.0000
  H   H82       1.0  0.80145  0.66684  0.28181  1.0000
  H   H83       1.0  0.61351  0.48685  0.41569  1.0000
  H   H84       1.0  0.65843  0.52506  0.42769  1.0000
  H   H85       1.0  0.79449  0.62957  0.43856  1.0000
  H   H86       1.0  0.80842  0.53069  0.45915  1.0000
  H   H87       1.0  0.71024  0.51892  0.45587  1.0000
  N   N10       1.0  0.19306  0.10798  0.39371  1.0000
  C   C133      1.0  0.22027  0.12420  0.40171  1.0000
  H   H88       1.0  0.22772  0.13695  0.45526  1.0000
  N   N11       1.0  0.90518  0.11107  0.39250  1.0000
  C   C134      1.0  0.89170  0.12499  0.39989  1.0000
  H   H89       1.0  0.89614  0.13800  0.45234  1.0000
  N   N12       1.0  0.90341  0.79613  0.39145  1.0000
  C   C135      1.0  0.89235  0.76891  0.40008  1.0000
  H   H90       1.0  0.89773  0.76156  0.45372  1.0000
  C   C136      1.0  0.59623  0.15524  0.31855  1.0000
  C   C137      1.0  0.54639  0.15434  0.31278  1.0000
  N   N13       1.0  0.55536  0.14784  0.38792  1.0000
  C   C138      1.0  0.57909  0.14747  0.39456  1.0000
  N   N14       1.0  0.58693  0.14169  0.47715  1.0000
  O   O7        1.0  0.58841  0.15810  0.53593  1.0000
  O   O8        1.0  0.56979  0.11818  0.50213  1.0000
  C   C139      1.0  0.83288  0.44131  0.32178  1.0000
  C   C140      1.0  0.83379  0.39234  0.31597  1.0000
  N   N15       1.0  0.84028  0.40782  0.39109  1.0000
  C   C141      1.0  0.84062  0.43190  0.39779  1.0000
  N   N16       1.0  0.84641  0.44552  0.48041  1.0000
  O   O9        1.0  0.83000  0.43057  0.53916  1.0000
  O   O10       1.0  0.86990  0.45187  0.50536  1.0000
  C   C142      1.0  0.54747  0.39210  0.32148  1.0000
  C   C143      1.0  0.59639  0.44199  0.31421  1.0000
  N   N17       1.0  0.58105  0.43316  0.38968  1.0000
  C   C144      1.0  0.55699  0.40942  0.39706  1.0000
  N   N18       1.0  0.54351  0.40177  0.47994  1.0000
  O   O11       1.0  0.55856  0.40046  0.53863  1.0000
  O   O12       1.0  0.53719  0.41897  0.50457  1.0000
