data_image0
_chemical_formula_structural       C30H17NHNHNHC30H17NHNHNHC3H2CH2C3H2CH2C3H2CH10C3HNH2CH2C3HNH2CH2C3HNH2CH2
_chemical_formula_sum              "C84 H75 N9"
_cell_length_a       44.9707
_cell_length_b       44.9708
_cell_length_c       15.0066
_cell_angle_alpha    90
_cell_angle_beta     90
_cell_angle_gamma    120

_space_group_name_H-M_alt    "P 1"
_space_group_IT_number       1

loop_
  _space_group_symop_operation_xyz
  'x, y, z'

loop_
  _atom_site_type_symbol
  _atom_site_label
  _atom_site_symmetry_multiplicity
  _atom_site_fract_x
  _atom_site_fract_y
  _atom_site_fract_z
  _atom_site_occupancy
  C   C1        1.0  0.13174  0.56791  0.31328  1.0000
  C   C2        1.0  0.15094  0.60104  0.35086  1.0000
  C   C3        1.0  0.18639  0.61552  0.36620  1.0000
  C   C4        1.0  0.20322  0.59706  0.34417  1.0000
  C   C5        1.0  0.18390  0.56378  0.30754  1.0000
  C   C6        1.0  0.14852  0.54948  0.29166  1.0000
  C   C7        1.0  0.23821  0.61130  0.35634  1.0000
  C   C8        1.0  0.26133  0.63758  0.30653  1.0000
  C   C9        1.0  0.29665  0.65154  0.31350  1.0000
  C   C10       1.0  0.31186  0.63058  0.31275  1.0000
  C   C11       1.0  0.34791  0.64501  0.31333  1.0000
  C   C12       1.0  0.36888  0.68118  0.31265  1.0000
  C   C13       1.0  0.35445  0.70280  0.31335  1.0000
  C   C14       1.0  0.31828  0.68760  0.31279  1.0000
  C   C15       1.0  0.37580  0.73813  0.30635  1.0000
  C   C16       1.0  0.37265  0.76125  0.35621  1.0000
  C   C17       1.0  0.39342  0.79624  0.34407  1.0000
  C   C18       1.0  0.37947  0.81556  0.30740  1.0000
  C   C19       1.0  0.42870  0.81305  0.36613  1.0000
  C   C20       1.0  0.44967  0.84850  0.35085  1.0000
  C   C21       1.0  0.43576  0.86771  0.31324  1.0000
  C   C22       1.0  0.40056  0.85094  0.29158  1.0000
  C   C23       1.0  0.36188  0.62365  0.30634  1.0000
  C   C24       1.0  0.38817  0.62681  0.35614  1.0000
  C   C25       1.0  0.40238  0.60604  0.34401  1.0000
  C   C26       1.0  0.38392  0.57076  0.36608  1.0000
  C   C27       1.0  0.43565  0.61999  0.30731  1.0000
  C   C28       1.0  0.44995  0.59889  0.29150  1.0000
  C   C29       1.0  0.43151  0.56370  0.31317  1.0000
  C   C30       1.0  0.39839  0.54978  0.35079  1.0000
  H   H1        1.0  0.13924  0.61491  0.36604  1.0000
  H   H2        1.0  0.19984  0.63970  0.39268  1.0000
  H   H3        1.0  0.30751  0.70300  0.30968  1.0000
  H   H4        1.0  0.29645  0.60441  0.30966  1.0000
  H   H5        1.0  0.39505  0.69194  0.30950  1.0000
  H   H6        1.0  0.35975  0.56004  0.39260  1.0000
  H   H7        1.0  0.35403  0.80395  0.29037  1.0000
  H   H8        1.0  0.47524  0.86020  0.36600  1.0000
  H   H9        1.0  0.43943  0.79961  0.39262  1.0000
  H   H10       1.0  0.38452  0.52422  0.36598  1.0000
  H   H11       1.0  0.44949  0.64542  0.29028  1.0000
  H   H12       1.0  0.35387  0.75341  0.40088  1.0000
  H   H13       1.0  0.39460  0.74656  0.26138  1.0000
  H   H14       1.0  0.24604  0.60030  0.40088  1.0000
  H   H15       1.0  0.25290  0.64798  0.26163  1.0000
  H   H16       1.0  0.39913  0.64562  0.40076  1.0000
  H   H17       1.0  0.35149  0.60484  0.26141  1.0000
  N   N1        1.0  0.45596  0.90315  0.29428  1.0000
  H   H18       1.0  0.47608  0.90697  0.25410  1.0000
  N   N2        1.0  0.09630  0.55267  0.29430  1.0000
  H   H19       1.0  0.09249  0.56897  0.25410  1.0000
  N   N3        1.0  0.44675  0.54349  0.29424  1.0000
  H   H20       1.0  0.43044  0.52336  0.25407  1.0000
  C   C31       1.0  0.86733  0.43034  0.35234  1.0000
  C   C32       1.0  0.84831  0.39753  0.31288  1.0000
  C   C33       1.0  0.81302  0.38337  0.29561  1.0000
  C   C34       1.0  0.79620  0.40186  0.31739  1.0000
  C   C35       1.0  0.81537  0.43488  0.35558  1.0000
  C   C36       1.0  0.85058  0.44884  0.37347  1.0000
  C   C37       1.0  0.76128  0.38778  0.30426  1.0000
  C   C38       1.0  0.73794  0.36156  0.35385  1.0000
  C   C39       1.0  0.70266  0.34781  0.34632  1.0000
  C   C40       1.0  0.68767  0.36896  0.34705  1.0000
  C   C41       1.0  0.65164  0.35475  0.34638  1.0000
  C   C42       1.0  0.63049  0.31860  0.34705  1.0000
  C   C43       1.0  0.64470  0.29679  0.34636  1.0000
  C   C44       1.0  0.68085  0.31178  0.34700  1.0000
  C   C45       1.0  0.62318  0.26152  0.35390  1.0000
  C   C46       1.0  0.62604  0.23817  0.30428  1.0000
  C   C47       1.0  0.60521  0.20325  0.31742  1.0000
  C   C48       1.0  0.61906  0.18408  0.35562  1.0000
  C   C49       1.0  0.56991  0.18643  0.29564  1.0000
  C   C50       1.0  0.54878  0.15114  0.31291  1.0000
  C   C51       1.0  0.56257  0.13212  0.35236  1.0000
  C   C52       1.0  0.59782  0.14887  0.37350  1.0000
  C   C53       1.0  0.63789  0.37627  0.35394  1.0000
  C   C54       1.0  0.61168  0.37341  0.30434  1.0000
  C   C55       1.0  0.59759  0.39425  0.31751  1.0000
  C   C56       1.0  0.61608  0.42955  0.29572  1.0000
  C   C57       1.0  0.56459  0.38040  0.35579  1.0000
  C   C58       1.0  0.55062  0.40164  0.37363  1.0000
  C   C59       1.0  0.56911  0.43688  0.35248  1.0000
  C   C60       1.0  0.60192  0.45067  0.31302  1.0000
  H   H21       1.0  0.85997  0.38358  0.29827  1.0000
  H   H22       1.0  0.79965  0.35934  0.26824  1.0000
  H   H23       1.0  0.69145  0.29624  0.35031  1.0000
  H   H24       1.0  0.70321  0.39511  0.35035  1.0000
  H   H25       1.0  0.60434  0.30800  0.35038  1.0000
  H   H26       1.0  0.64010  0.44021  0.26828  1.0000
  H   H27       1.0  0.64449  0.19572  0.37272  1.0000
  H   H28       1.0  0.52317  0.13948  0.29829  1.0000
  H   H29       1.0  0.55924  0.19979  0.26825  1.0000
  H   H30       1.0  0.61586  0.47628  0.29834  1.0000
  H   H31       1.0  0.55078  0.35496  0.37280  1.0000
  H   H32       1.0  0.64471  0.24578  0.25931  1.0000
  H   H33       1.0  0.60454  0.25330  0.39927  1.0000
  H   H34       1.0  0.75368  0.39884  0.25932  1.0000
  H   H35       1.0  0.74615  0.35112  0.39919  1.0000
  H   H36       1.0  0.60062  0.35475  0.25938  1.0000
  H   H37       1.0  0.64832  0.39492  0.39931  1.0000
  N   N4        1.0  0.54216  0.09701  0.37445  1.0000
  H   H38       1.0  0.52229  0.09391  0.41458  1.0000
  N   N5        1.0  0.90244  0.44504  0.37442  1.0000
  H   H39       1.0  0.90553  0.42826  0.41456  1.0000
  N   N6        1.0  0.55440  0.45729  0.37452  1.0000
  H   H40       1.0  0.57118  0.47718  0.41465  1.0000
  C   C61       1.0  0.49115  0.51487  0.26905  1.0000
  C   C62       1.0  0.51203  0.50054  0.25167  1.0000
  C   C63       1.0  0.52192  0.48601  0.32062  1.0000
  H   H41       1.0  0.48508  0.52526  0.21647  1.0000
  H   H42       1.0  0.52006  0.50083  0.18766  1.0000
  C   C64       1.0  0.54377  0.47078  0.29782  1.0000
  H   H43       1.0  0.56679  0.49026  0.26343  1.0000
  H   H44       1.0  0.52914  0.44975  0.25099  1.0000
  C   C65       1.0  0.48458  0.97618  0.26905  1.0000
  C   C66       1.0  0.49890  0.01137  0.25165  1.0000
  C   C67       1.0  0.51343  0.03580  0.32059  1.0000
  H   H45       1.0  0.47419  0.95970  0.21648  1.0000
  H   H46       1.0  0.49861  0.01911  0.18764  1.0000
  C   C68       1.0  0.52867  0.07289  0.29777  1.0000
  H   H47       1.0  0.50918  0.07642  0.26338  1.0000
  H   H48       1.0  0.54969  0.07928  0.25093  1.0000
  C   C69       1.0  0.02327  0.50827  0.26905  1.0000
  C   C70       1.0  0.98808  0.48740  0.25165  1.0000
  C   C71       1.0  0.96365  0.47752  0.32058  1.0000
  H   H49       1.0  0.03975  0.51434  0.21648  1.0000
  H   H50       1.0  0.98035  0.47937  0.18763  1.0000
  C   C72       1.0  0.92656  0.45566  0.29775  1.0000
  H   H51       1.0  0.92303  0.43264  0.26337  1.0000
  H   H52       1.0  0.92017  0.47029  0.25089  1.0000
  H   H53       1.0  0.13501  0.52554  0.26400  1.0000
  H   H54       1.0  0.19551  0.54996  0.29048  1.0000
  H   H55       1.0  0.39013  0.86446  0.26392  1.0000
  H   H56       1.0  0.47389  0.60932  0.26384  1.0000
  H   H57       1.0  0.86394  0.47252  0.40261  1.0000
  H   H58       1.0  0.80374  0.44867  0.37268  1.0000
  H   H59       1.0  0.60814  0.13551  0.40266  1.0000
  H   H60       1.0  0.52693  0.39132  0.40275  1.0000
  C   C73       1.0  0.51004  0.48629  0.40769  1.0000
  C   C74       1.0  0.48905  0.50073  0.42702  1.0000
  C   C75       1.0  0.47907  0.51511  0.35612  1.0000
  H   H61       1.0  0.51671  0.47566  0.45859  1.0000
  N   N7        1.0  0.47935  0.50015  0.51337  1.0000
  H   H62       1.0  0.48670  0.49036  0.56049  1.0000
  H   H63       1.0  0.46538  0.50993  0.53172  1.0000
  C   C76       1.0  0.45679  0.53050  0.37325  1.0000
  H   H64       1.0  0.47079  0.55192  0.41944  1.0000
  H   H65       1.0  0.43331  0.51117  0.40625  1.0000
  C   C77       1.0  0.51316  0.02366  0.40766  1.0000
  C   C78       1.0  0.49873  0.98822  0.42702  1.0000
  C   C79       1.0  0.48434  0.96386  0.35612  1.0000
  H   H66       1.0  0.52379  0.04095  0.45856  1.0000
  N   N8        1.0  0.49931  0.97911  0.51337  1.0000
  H   H67       1.0  0.50912  0.99626  0.56047  1.0000
  H   H68       1.0  0.48955  0.95536  0.53172  1.0000
  C   C80       1.0  0.46896  0.92619  0.37328  1.0000
  H   H69       1.0  0.44754  0.91877  0.41948  1.0000
  H   H70       1.0  0.48829  0.92204  0.40627  1.0000
  C   C81       1.0  0.97579  0.48939  0.40765  1.0000
  C   C82       1.0  0.01122  0.51038  0.42701  1.0000
  C   C83       1.0  0.03559  0.52036  0.35612  1.0000
  H   H71       1.0  0.95850  0.48273  0.45854  1.0000
  N   N9        1.0  0.02033  0.52008  0.51337  1.0000
  H   H72       1.0  0.00318  0.51274  0.56046  1.0000
  H   H73       1.0  0.04408  0.53405  0.53172  1.0000
  C   C84       1.0  0.07327  0.54264  0.37329  1.0000
  H   H74       1.0  0.08067  0.52863  0.41951  1.0000
  H   H75       1.0  0.07741  0.56612  0.40627  1.0000
