data_image0
_chemical_formula_structural       C4H3NC4H3CH3NC2H3C6H3C3H3CHCHC4H3CH3NC4H3NC3H3NC4H3NC4H3CH3NC2H3C6H3C3H3CHCHC4H3CH3NC4H3NC3H3NCH3NC5H2C2H2CH3CH3NC5H2C2H2CH3C3H3C2H3C3H3C2H3C2HCHC2HCHC4H3CH3NC4H3CH3NC3H5NC6H3C3H3C6H3C3H3C4H3CH3NC4H3CH3NC3H3CH2NC4H3CH3NC4H3CH3NC3H5NC6H3C3H3C6H3C3H3C4H3CH3NC4H3CH3NC3H3CH2N
_chemical_formula_sum              "C192 H192 N24"
_cell_length_a       46.1124
_cell_length_b       46.1124
_cell_length_c       14.6597
_cell_angle_alpha    90
_cell_angle_beta     90
_cell_angle_gamma    120

_space_group_name_H-M_alt    "P 1"
_space_group_IT_number       1

loop_
  _space_group_symop_operation_xyz
  'x, y, z'

loop_
  _atom_site_type_symbol
  _atom_site_label
  _atom_site_symmetry_multiplicity
  _atom_site_fract_x
  _atom_site_fract_y
  _atom_site_fract_z
  _atom_site_occupancy
  C   C1        1.0  0.28418  0.24223  0.36080  1.0000
  C   C2        1.0  0.30111  0.27616  0.33004  1.0000
  C   C3        1.0  0.28363  0.29451  0.32235  1.0000
  C   C4        1.0  0.29935  0.32756  0.27405  1.0000
  H   H1        1.0  0.28117  0.32924  0.23003  1.0000
  H   H2        1.0  0.31979  0.33186  0.22868  1.0000
  H   H3        1.0  0.30917  0.34777  0.32404  1.0000
  N   N1        1.0  0.30176  0.22535  0.35591  1.0000
  C   C5        1.0  0.28680  0.04775  0.36080  1.0000
  C   C6        1.0  0.25286  0.03075  0.33004  1.0000
  C   C7        1.0  0.23451  0.49493  0.32237  1.0000
  C   C8        1.0  0.23609  0.05049  0.30553  1.0000
  H   H4        1.0  0.24892  0.07613  0.33062  1.0000
  H   H5        1.0  0.21102  0.03883  0.33512  1.0000
  H   H6        1.0  0.23427  0.05150  0.23150  1.0000
  C   C9        1.0  0.20146  0.47760  0.27409  1.0000
  H   H7        1.0  0.19977  0.45773  0.23006  1.0000
  H   H8        1.0  0.19715  0.49373  0.22874  1.0000
  H   H9        1.0  0.18125  0.46720  0.32410  1.0000
  N   N2        1.0  0.30367  0.08221  0.35591  1.0000
  C   C10       1.0  0.03410  0.24539  0.32236  1.0000
  C   C11       1.0  0.05142  0.22967  0.27407  1.0000
  H   H10       1.0  0.07129  0.24784  0.23006  1.0000
  H   H11       1.0  0.03529  0.20922  0.22872  1.0000
  H   H12       1.0  0.06182  0.21985  0.32408  1.0000
  C   C12       1.0  0.20996  0.33618  0.35648  1.0000
  C   C13       1.0  0.21779  0.37018  0.35656  1.0000
  C   C14       1.0  0.19284  0.37958  0.35649  1.0000
  C   C15       1.0  0.15884  0.35341  0.35658  1.0000
  C   C16       1.0  0.14944  0.31906  0.35651  1.0000
  C   C17       1.0  0.17561  0.31123  0.35660  1.0000
  H   H13       1.0  0.14039  0.35955  0.35513  1.0000
  H   H14       1.0  0.16947  0.28664  0.35512  1.0000
  H   H15       1.0  0.24238  0.38863  0.35513  1.0000
  C   C18       1.0  0.20056  0.41353  0.35364  1.0000
  C   C19       1.0  0.11549  0.29283  0.35364  1.0000
  C   C20       1.0  0.23619  0.32846  0.35362  1.0000
  H   H16       1.0  0.26004  0.34818  0.35166  1.0000
  H   H17       1.0  0.11135  0.26898  0.35170  1.0000
  H   H18       1.0  0.18084  0.41767  0.35169  1.0000
  C   C21       1.0  0.31711  0.15286  0.35830  1.0000
  H   H19       1.0  0.29257  0.13428  0.35975  1.0000
  C   C22       1.0  0.29827  0.19424  0.36126  1.0000
  H   H20       1.0  0.27451  0.17440  0.36336  1.0000
  C   C23       1.0  0.24989  0.28025  0.35382  1.0000
  C   C24       1.0  0.23295  0.24634  0.38479  1.0000
  C   C25       1.0  0.25036  0.22789  0.39180  1.0000
  C   C26       1.0  0.23448  0.19454  0.43854  1.0000
  H   H21       1.0  0.21348  0.18956  0.48240  1.0000
  H   H22       1.0  0.25240  0.19285  0.48365  1.0000
  H   H23       1.0  0.22540  0.17469  0.38754  1.0000
  C   C27       1.0  0.19651  0.22969  0.41003  1.0000
  H   H24       1.0  0.18382  0.24291  0.38720  1.0000
  H   H25       1.0  0.19383  0.22725  0.48403  1.0000
  H   H26       1.0  0.18288  0.20490  0.37888  1.0000
  N   N3        1.0  0.23242  0.29724  0.35887  1.0000
  C   C28       1.0  0.24877  0.47544  0.35383  1.0000
  C   C29       1.0  0.28268  0.49241  0.38479  1.0000
  C   C30       1.0  0.30113  0.02827  0.39180  1.0000
  C   C31       1.0  0.29933  0.47263  0.41002  1.0000
  H   H27       1.0  0.28610  0.44671  0.38721  1.0000
  H   H28       1.0  0.30178  0.47239  0.48402  1.0000
  H   H29       1.0  0.32412  0.48377  0.37885  1.0000
  N   N4        1.0  0.23178  0.44099  0.35888  1.0000
  C   C32       1.0  0.05358  0.27913  0.35382  1.0000
  C   C33       1.0  0.03661  0.29607  0.38478  1.0000
  C   C34       1.0  0.05639  0.33251  0.41000  1.0000
  H   H30       1.0  0.08231  0.34520  0.38718  1.0000
  H   H31       1.0  0.05664  0.33520  0.48401  1.0000
  H   H32       1.0  0.04524  0.34615  0.37884  1.0000
  N   N5        1.0  0.08803  0.29660  0.35888  1.0000
  C   C35       1.0  0.28418  0.74223  0.36080  1.0000
  C   C36       1.0  0.30111  0.77616  0.33004  1.0000
  C   C37       1.0  0.28363  0.79451  0.32235  1.0000
  C   C38       1.0  0.29935  0.82756  0.27405  1.0000
  H   H33       1.0  0.28117  0.82924  0.23003  1.0000
  H   H34       1.0  0.31979  0.83186  0.22868  1.0000
  H   H35       1.0  0.30917  0.84777  0.32404  1.0000
  N   N6        1.0  0.30176  0.72535  0.35591  1.0000
  C   C39       1.0  0.28680  0.54775  0.36080  1.0000
  C   C40       1.0  0.25286  0.53075  0.33004  1.0000
  C   C41       1.0  0.23451  0.99493  0.32237  1.0000
  C   C42       1.0  0.23609  0.55049  0.30553  1.0000
  H   H36       1.0  0.24892  0.57613  0.33062  1.0000
  H   H37       1.0  0.21102  0.53883  0.33512  1.0000
  H   H38       1.0  0.23427  0.55150  0.23150  1.0000
  C   C43       1.0  0.20146  0.97760  0.27409  1.0000
  H   H39       1.0  0.19977  0.95773  0.23006  1.0000
  H   H40       1.0  0.19715  0.99373  0.22874  1.0000
  H   H41       1.0  0.18124  0.96720  0.32410  1.0000
  N   N7        1.0  0.30367  0.58221  0.35591  1.0000
  C   C44       1.0  0.03410  0.74539  0.32236  1.0000
  C   C45       1.0  0.05142  0.72967  0.27407  1.0000
  H   H42       1.0  0.07129  0.74784  0.23006  1.0000
  H   H43       1.0  0.03529  0.70922  0.22872  1.0000
  H   H44       1.0  0.06182  0.71985  0.32408  1.0000
  C   C46       1.0  0.20996  0.83618  0.35648  1.0000
  C   C47       1.0  0.21778  0.87018  0.35656  1.0000
  C   C48       1.0  0.19284  0.87958  0.35649  1.0000
  C   C49       1.0  0.15884  0.85341  0.35658  1.0000
  C   C50       1.0  0.14944  0.81906  0.35651  1.0000
  C   C51       1.0  0.17561  0.81123  0.35660  1.0000
  H   H45       1.0  0.14038  0.85955  0.35514  1.0000
  H   H46       1.0  0.16947  0.78664  0.35512  1.0000
  H   H47       1.0  0.24238  0.88863  0.35513  1.0000
  C   C52       1.0  0.20056  0.91353  0.35364  1.0000
  C   C53       1.0  0.11549  0.79283  0.35364  1.0000
  C   C54       1.0  0.23619  0.82846  0.35362  1.0000
  H   H48       1.0  0.26004  0.84818  0.35166  1.0000
  H   H49       1.0  0.11135  0.76898  0.35170  1.0000
  H   H50       1.0  0.18084  0.91766  0.35169  1.0000
  C   C55       1.0  0.31711  0.65286  0.35830  1.0000
  H   H51       1.0  0.29257  0.63428  0.35975  1.0000
  C   C56       1.0  0.29827  0.69424  0.36126  1.0000
  H   H52       1.0  0.27451  0.67440  0.36336  1.0000
  C   C57       1.0  0.24989  0.78025  0.35382  1.0000
  C   C58       1.0  0.23295  0.74634  0.38479  1.0000
  C   C59       1.0  0.25036  0.72789  0.39180  1.0000
  C   C60       1.0  0.23448  0.69454  0.43854  1.0000
  H   H53       1.0  0.21348  0.68956  0.48240  1.0000
  H   H54       1.0  0.25240  0.69285  0.48365  1.0000
  H   H55       1.0  0.22540  0.67469  0.38754  1.0000
  C   C61       1.0  0.19651  0.72969  0.41003  1.0000
  H   H56       1.0  0.18382  0.74291  0.38720  1.0000
  H   H57       1.0  0.19383  0.72725  0.48403  1.0000
  H   H58       1.0  0.18288  0.70490  0.37888  1.0000
  N   N8        1.0  0.23242  0.79724  0.35887  1.0000
  C   C62       1.0  0.24877  0.97544  0.35383  1.0000
  C   C63       1.0  0.28268  0.99241  0.38479  1.0000
  C   C64       1.0  0.30113  0.52827  0.39180  1.0000
  C   C65       1.0  0.29933  0.97263  0.41002  1.0000
  H   H59       1.0  0.28610  0.94671  0.38721  1.0000
  H   H60       1.0  0.30177  0.97238  0.48402  1.0000
  H   H61       1.0  0.32412  0.98377  0.37885  1.0000
  N   N9        1.0  0.23178  0.94099  0.35888  1.0000
  C   C66       1.0  0.05358  0.77913  0.35382  1.0000
  C   C67       1.0  0.03661  0.79607  0.38478  1.0000
  C   C68       1.0  0.05639  0.83251  0.41000  1.0000
  H   H62       1.0  0.08231  0.84520  0.38718  1.0000
  H   H63       1.0  0.05664  0.83520  0.48400  1.0000
  H   H64       1.0  0.04524  0.84615  0.37884  1.0000
  N   N10       1.0  0.08803  0.79660  0.35888  1.0000
  C   C69       1.0  0.33762  0.29294  0.30552  1.0000
  H   H65       1.0  0.35043  0.28011  0.33064  1.0000
  H   H66       1.0  0.35102  0.31800  0.33510  1.0000
  H   H67       1.0  0.34045  0.29474  0.23149  1.0000
  N   N11       1.0  0.44681  0.22726  0.35590  1.0000
  C   C70       1.0  0.32469  0.18679  0.35841  1.0000
  C   C71       1.0  0.34224  0.14370  0.35841  1.0000
  C   C72       1.0  0.37616  0.17005  0.35832  1.0000
  C   C73       1.0  0.38532  0.20434  0.35838  1.0000
  C   C74       1.0  0.35897  0.21191  0.35831  1.0000
  H   H68       1.0  0.39474  0.16410  0.35974  1.0000
  H   H69       1.0  0.36493  0.23645  0.35974  1.0000
  C   C75       1.0  0.33478  0.10984  0.36126  1.0000
  C   C76       1.0  0.41919  0.23075  0.36126  1.0000
  H   H70       1.0  0.42310  0.25451  0.36335  1.0000
  H   H71       1.0  0.35463  0.10592  0.36338  1.0000
  C   C77       1.0  0.33449  0.04575  0.43851  1.0000
  H   H72       1.0  0.33947  0.02972  0.48235  1.0000
  H   H73       1.0  0.33618  0.06535  0.48364  1.0000
  H   H74       1.0  0.35434  0.05652  0.38750  1.0000
  C   C78       1.0  0.33761  0.79293  0.30552  1.0000
  H   H75       1.0  0.35043  0.78011  0.33064  1.0000
  H   H76       1.0  0.35102  0.81800  0.33510  1.0000
  H   H77       1.0  0.34045  0.79475  0.23149  1.0000
  N   N12       1.0  0.44681  0.72726  0.35590  1.0000
  C   C79       1.0  0.32469  0.68679  0.35841  1.0000
  C   C80       1.0  0.34224  0.64371  0.35841  1.0000
  C   C81       1.0  0.37616  0.67005  0.35832  1.0000
  C   C82       1.0  0.38532  0.70434  0.35838  1.0000
  C   C83       1.0  0.35897  0.71191  0.35831  1.0000
  H   H78       1.0  0.39474  0.66410  0.35974  1.0000
  H   H79       1.0  0.36493  0.73645  0.35974  1.0000
  C   C84       1.0  0.33478  0.60984  0.36126  1.0000
  C   C85       1.0  0.41919  0.73075  0.36126  1.0000
  H   H80       1.0  0.42310  0.75451  0.36335  1.0000
  H   H81       1.0  0.35463  0.60592  0.36338  1.0000
  C   C86       1.0  0.33449  0.54575  0.43851  1.0000
  H   H82       1.0  0.33947  0.52972  0.48235  1.0000
  H   H83       1.0  0.33618  0.56535  0.48364  1.0000
  H   H84       1.0  0.35434  0.55652  0.38750  1.0000
  C   C87       1.0  0.48127  0.24485  0.36079  1.0000
  C   C88       1.0  0.49827  0.22791  0.33004  1.0000
  C   C89       1.0  0.47854  0.19140  0.30553  1.0000
  H   H85       1.0  0.45290  0.17860  0.33063  1.0000
  H   H86       1.0  0.49020  0.17800  0.33512  1.0000
  H   H87       1.0  0.47751  0.18857  0.23150  1.0000
  C   C90       1.0  0.50075  0.27866  0.39179  1.0000
  C   C91       1.0  0.48327  0.29454  0.43851  1.0000
  H   H88       1.0  0.49930  0.31555  0.48236  1.0000
  H   H89       1.0  0.46367  0.27663  0.48363  1.0000
  H   H90       1.0  0.47251  0.30363  0.38751  1.0000
  C   C92       1.0  0.48127  0.74485  0.36079  1.0000
  C   C93       1.0  0.49827  0.72791  0.33004  1.0000
  C   C94       1.0  0.47854  0.69140  0.30553  1.0000
  H   H91       1.0  0.45290  0.67860  0.33063  1.0000
  H   H92       1.0  0.49019  0.67800  0.33512  1.0000
  H   H93       1.0  0.47752  0.68857  0.23150  1.0000
  C   C95       1.0  0.50075  0.77866  0.39179  1.0000
  C   C96       1.0  0.48327  0.79454  0.43851  1.0000
  H   H94       1.0  0.49930  0.81555  0.48236  1.0000
  H   H95       1.0  0.46367  0.77663  0.48363  1.0000
  H   H96       1.0  0.47251  0.80363  0.38751  1.0000
  C   C97       1.0  0.53410  0.24539  0.32236  1.0000
  C   C98       1.0  0.55143  0.22967  0.27407  1.0000
  H   H97       1.0  0.53529  0.20922  0.22872  1.0000
  C   C99       1.0  0.53661  0.29607  0.38478  1.0000
  H   H98       1.0  0.54524  0.34615  0.37884  1.0000
  C   C100      1.0  0.53410  0.74539  0.32236  1.0000
  C   C101      1.0  0.55142  0.72967  0.27407  1.0000
  H   H99       1.0  0.53529  0.70922  0.22872  1.0000
  C   C102      1.0  0.53661  0.79607  0.38478  1.0000
  H   H100      1.0  0.54524  0.84615  0.37884  1.0000
  C   C103      1.0  0.78418  0.24223  0.36080  1.0000
  C   C104      1.0  0.80111  0.27616  0.33004  1.0000
  C   C105      1.0  0.78363  0.29451  0.32235  1.0000
  C   C106      1.0  0.83762  0.29294  0.30552  1.0000
  H   H101      1.0  0.85043  0.28011  0.33064  1.0000
  H   H102      1.0  0.85102  0.31800  0.33510  1.0000
  H   H103      1.0  0.84045  0.29474  0.23149  1.0000
  C   C107      1.0  0.79935  0.32756  0.27405  1.0000
  H   H104      1.0  0.78117  0.32924  0.23003  1.0000
  H   H105      1.0  0.81979  0.33186  0.22868  1.0000
  H   H106      1.0  0.80917  0.34777  0.32404  1.0000
  N   N13       1.0  0.80176  0.22535  0.35591  1.0000
  C   C108      1.0  0.78680  0.04775  0.36080  1.0000
  C   C109      1.0  0.75286  0.03075  0.33004  1.0000
  C   C110      1.0  0.73451  0.49493  0.32237  1.0000
  C   C111      1.0  0.73609  0.05049  0.30553  1.0000
  H   H107      1.0  0.74892  0.07613  0.33062  1.0000
  H   H108      1.0  0.71102  0.03883  0.33512  1.0000
  H   H109      1.0  0.73427  0.05150  0.23150  1.0000
  C   C112      1.0  0.70146  0.47760  0.27409  1.0000
  H   H110      1.0  0.69977  0.45773  0.23006  1.0000
  H   H111      1.0  0.69715  0.49373  0.22874  1.0000
  H   H112      1.0  0.68125  0.46720  0.32410  1.0000
  N   N14       1.0  0.80367  0.08221  0.35591  1.0000
  C   C113      1.0  0.98127  0.24485  0.36079  1.0000
  C   C114      1.0  0.99827  0.22791  0.33004  1.0000
  C   C115      1.0  0.97854  0.19140  0.30553  1.0000
  H   H113      1.0  0.95290  0.17860  0.33063  1.0000
  H   H114      1.0  0.99020  0.17800  0.33512  1.0000
  H   H115      1.0  0.97751  0.18857  0.23150  1.0000
  H   H116      1.0  0.57129  0.24784  0.23006  1.0000
  H   H117      1.0  0.56182  0.21985  0.32408  1.0000
  N   N15       1.0  0.94681  0.22726  0.35590  1.0000
  C   C116      1.0  0.70996  0.33618  0.35648  1.0000
  C   C117      1.0  0.71779  0.37018  0.35656  1.0000
  C   C118      1.0  0.69284  0.37958  0.35649  1.0000
  C   C119      1.0  0.65884  0.35341  0.35658  1.0000
  C   C120      1.0  0.64944  0.31906  0.35651  1.0000
  C   C121      1.0  0.67561  0.31123  0.35660  1.0000
  H   H118      1.0  0.64038  0.35955  0.35513  1.0000
  H   H119      1.0  0.66947  0.28664  0.35512  1.0000
  H   H120      1.0  0.74238  0.38863  0.35513  1.0000
  C   C122      1.0  0.70056  0.41353  0.35364  1.0000
  C   C123      1.0  0.61549  0.29283  0.35364  1.0000
  C   C124      1.0  0.73619  0.32846  0.35362  1.0000
  H   H121      1.0  0.76004  0.34818  0.35166  1.0000
  H   H122      1.0  0.61135  0.26898  0.35170  1.0000
  H   H123      1.0  0.68084  0.41767  0.35169  1.0000
  C   C125      1.0  0.82469  0.18679  0.35841  1.0000
  C   C126      1.0  0.81711  0.15286  0.35830  1.0000
  C   C127      1.0  0.84223  0.14370  0.35841  1.0000
  C   C128      1.0  0.87616  0.17005  0.35832  1.0000
  C   C129      1.0  0.88532  0.20434  0.35838  1.0000
  C   C130      1.0  0.85897  0.21191  0.35831  1.0000
  H   H124      1.0  0.89475  0.16410  0.35974  1.0000
  H   H125      1.0  0.86493  0.23645  0.35974  1.0000
  H   H126      1.0  0.79257  0.13428  0.35975  1.0000
  C   C131      1.0  0.83478  0.10984  0.36126  1.0000
  C   C132      1.0  0.91919  0.23075  0.36126  1.0000
  C   C133      1.0  0.79827  0.19424  0.36126  1.0000
  H   H127      1.0  0.77451  0.17440  0.36336  1.0000
  H   H128      1.0  0.92310  0.25451  0.36335  1.0000
  H   H129      1.0  0.85463  0.10592  0.36338  1.0000
  C   C134      1.0  0.74989  0.28025  0.35382  1.0000
  C   C135      1.0  0.73295  0.24634  0.38479  1.0000
  C   C136      1.0  0.75036  0.22789  0.39180  1.0000
  C   C137      1.0  0.73449  0.19454  0.43854  1.0000
  H   H130      1.0  0.71348  0.18956  0.48240  1.0000
  H   H131      1.0  0.75240  0.19285  0.48365  1.0000
  H   H132      1.0  0.72540  0.17469  0.38754  1.0000
  C   C138      1.0  0.69652  0.22969  0.41003  1.0000
  H   H133      1.0  0.68382  0.24291  0.38720  1.0000
  H   H134      1.0  0.69383  0.22725  0.48403  1.0000
  H   H135      1.0  0.68288  0.20490  0.37888  1.0000
  N   N16       1.0  0.73242  0.29724  0.35887  1.0000
  C   C139      1.0  0.74877  0.47544  0.35383  1.0000
  C   C140      1.0  0.78268  0.49241  0.38479  1.0000
  C   C141      1.0  0.80113  0.02827  0.39180  1.0000
  C   C142      1.0  0.83449  0.04575  0.43851  1.0000
  H   H136      1.0  0.83947  0.02972  0.48235  1.0000
  H   H137      1.0  0.83618  0.06535  0.48364  1.0000
  H   H138      1.0  0.85434  0.05652  0.38750  1.0000
  C   C143      1.0  0.79933  0.47263  0.41002  1.0000
  H   H139      1.0  0.78611  0.44671  0.38721  1.0000
  H   H140      1.0  0.80178  0.47239  0.48402  1.0000
  H   H141      1.0  0.82412  0.48377  0.37885  1.0000
  N   N17       1.0  0.73178  0.44099  0.35888  1.0000
  C   C144      1.0  0.55358  0.27913  0.35382  1.0000
  C   C145      1.0  0.00075  0.27866  0.39179  1.0000
  C   C146      1.0  0.98327  0.29454  0.43851  1.0000
  H   H142      1.0  0.99930  0.31555  0.48236  1.0000
  H   H143      1.0  0.96367  0.27663  0.48363  1.0000
  H   H144      1.0  0.97251  0.30363  0.38751  1.0000
  C   C147      1.0  0.55639  0.33251  0.41000  1.0000
  H   H145      1.0  0.58231  0.34520  0.38718  1.0000
  H   H146      1.0  0.55664  0.33520  0.48401  1.0000
  N   N18       1.0  0.58803  0.29660  0.35888  1.0000
  C   C148      1.0  0.78418  0.74223  0.36080  1.0000
  C   C149      1.0  0.80111  0.77616  0.33004  1.0000
  C   C150      1.0  0.78363  0.79451  0.32235  1.0000
  C   C151      1.0  0.83762  0.79293  0.30552  1.0000
  H   H147      1.0  0.85043  0.78011  0.33064  1.0000
  H   H148      1.0  0.85102  0.81800  0.33510  1.0000
  H   H149      1.0  0.84045  0.79475  0.23149  1.0000
  C   C152      1.0  0.79935  0.82756  0.27405  1.0000
  H   H150      1.0  0.78117  0.82924  0.23003  1.0000
  H   H151      1.0  0.81979  0.83186  0.22868  1.0000
  H   H152      1.0  0.80917  0.84777  0.32404  1.0000
  N   N19       1.0  0.80176  0.72535  0.35591  1.0000
  C   C153      1.0  0.78679  0.54775  0.36080  1.0000
  C   C154      1.0  0.75286  0.53075  0.33004  1.0000
  C   C155      1.0  0.73451  0.99493  0.32237  1.0000
  C   C156      1.0  0.73609  0.55049  0.30553  1.0000
  H   H153      1.0  0.74892  0.57613  0.33062  1.0000
  H   H154      1.0  0.71102  0.53883  0.33512  1.0000
  H   H155      1.0  0.73427  0.55150  0.23150  1.0000
  C   C157      1.0  0.70146  0.97760  0.27409  1.0000
  H   H156      1.0  0.69977  0.95773  0.23006  1.0000
  H   H157      1.0  0.69715  0.99373  0.22874  1.0000
  H   H158      1.0  0.68125  0.96720  0.32410  1.0000
  N   N20       1.0  0.80367  0.58221  0.35591  1.0000
  C   C158      1.0  0.98127  0.74485  0.36079  1.0000
  C   C159      1.0  0.99827  0.72791  0.33004  1.0000
  C   C160      1.0  0.97854  0.69140  0.30553  1.0000
  H   H159      1.0  0.95290  0.67860  0.33063  1.0000
  H   H160      1.0  0.99020  0.67800  0.33512  1.0000
  H   H161      1.0  0.97751  0.68857  0.23150  1.0000
  H   H162      1.0  0.57129  0.74784  0.23006  1.0000
  H   H163      1.0  0.56182  0.71985  0.32408  1.0000
  N   N21       1.0  0.94681  0.72726  0.35590  1.0000
  C   C161      1.0  0.70996  0.83618  0.35648  1.0000
  C   C162      1.0  0.71779  0.87018  0.35656  1.0000
  C   C163      1.0  0.69284  0.87958  0.35649  1.0000
  C   C164      1.0  0.65884  0.85341  0.35658  1.0000
  C   C165      1.0  0.64944  0.81906  0.35651  1.0000
  C   C166      1.0  0.67561  0.81123  0.35660  1.0000
  H   H164      1.0  0.64038  0.85955  0.35514  1.0000
  H   H165      1.0  0.66947  0.78664  0.35512  1.0000
  H   H166      1.0  0.74238  0.88863  0.35513  1.0000
  C   C167      1.0  0.70056  0.91353  0.35364  1.0000
  C   C168      1.0  0.61549  0.79283  0.35364  1.0000
  C   C169      1.0  0.73619  0.82846  0.35362  1.0000
  H   H167      1.0  0.76004  0.84818  0.35166  1.0000
  H   H168      1.0  0.61135  0.76898  0.35170  1.0000
  H   H169      1.0  0.68084  0.91766  0.35169  1.0000
  C   C170      1.0  0.82469  0.68679  0.35841  1.0000
  C   C171      1.0  0.81711  0.65286  0.35830  1.0000
  C   C172      1.0  0.84224  0.64371  0.35841  1.0000
  C   C173      1.0  0.87616  0.67005  0.35832  1.0000
  C   C174      1.0  0.88532  0.70434  0.35838  1.0000
  C   C175      1.0  0.85897  0.71191  0.35831  1.0000
  H   H170      1.0  0.89474  0.66410  0.35974  1.0000
  H   H171      1.0  0.86493  0.73645  0.35974  1.0000
  H   H172      1.0  0.79257  0.63428  0.35975  1.0000
  C   C176      1.0  0.83478  0.60984  0.36126  1.0000
  C   C177      1.0  0.91919  0.73075  0.36126  1.0000
  C   C178      1.0  0.79827  0.69424  0.36126  1.0000
  H   H173      1.0  0.77451  0.67440  0.36336  1.0000
  H   H174      1.0  0.92310  0.75451  0.36335  1.0000
  H   H175      1.0  0.85463  0.60592  0.36338  1.0000
  C   C179      1.0  0.74989  0.78025  0.35382  1.0000
  C   C180      1.0  0.73295  0.74634  0.38479  1.0000
  C   C181      1.0  0.75036  0.72789  0.39180  1.0000
  C   C182      1.0  0.73448  0.69454  0.43854  1.0000
  H   H176      1.0  0.71348  0.68956  0.48240  1.0000
  H   H177      1.0  0.75240  0.69285  0.48365  1.0000
  H   H178      1.0  0.72540  0.67469  0.38754  1.0000
  C   C183      1.0  0.69652  0.72969  0.41003  1.0000
  H   H179      1.0  0.68382  0.74291  0.38720  1.0000
  H   H180      1.0  0.69383  0.72725  0.48403  1.0000
  H   H181      1.0  0.68288  0.70490  0.37888  1.0000
  N   N22       1.0  0.73242  0.79724  0.35887  1.0000
  C   C184      1.0  0.74877  0.97544  0.35383  1.0000
  C   C185      1.0  0.78268  0.99241  0.38479  1.0000
  C   C186      1.0  0.80113  0.52827  0.39180  1.0000
  C   C187      1.0  0.83449  0.54575  0.43851  1.0000
  H   H182      1.0  0.83947  0.52972  0.48235  1.0000
  H   H183      1.0  0.83618  0.56535  0.48364  1.0000
  H   H184      1.0  0.85434  0.55652  0.38750  1.0000
  C   C188      1.0  0.79933  0.97263  0.41002  1.0000
  H   H185      1.0  0.78610  0.94671  0.38721  1.0000
  H   H186      1.0  0.80178  0.97238  0.48402  1.0000
  H   H187      1.0  0.82412  0.98377  0.37885  1.0000
  N   N23       1.0  0.73178  0.94099  0.35888  1.0000
  C   C189      1.0  0.55358  0.77913  0.35382  1.0000
  C   C190      1.0  0.00075  0.77866  0.39179  1.0000
  C   C191      1.0  0.98327  0.79454  0.43851  1.0000
  H   H188      1.0  0.99930  0.81555  0.48236  1.0000
  H   H189      1.0  0.96367  0.77663  0.48363  1.0000
  H   H190      1.0  0.97251  0.80363  0.38751  1.0000
  C   C192      1.0  0.55639  0.83251  0.41000  1.0000
  H   H191      1.0  0.58231  0.84520  0.38718  1.0000
  H   H192      1.0  0.55664  0.83520  0.48400  1.0000
  N   N24       1.0  0.58803  0.79660  0.35888  1.0000
