data_image0
_chemical_formula_structural       C6H6C6H6C2H2C3H2NC2H2C3H2NC2H2C3H2N2C12H6C3H3NC12H6C3H3C7H3NH2NC7H3NH2NC7H3NH2N
_chemical_formula_sum              "C78 H57 N11"
_cell_length_a       39.2918
_cell_length_b       39.2907
_cell_length_c       14.9765
_cell_angle_alpha    90
_cell_angle_beta     90
_cell_angle_gamma    120.001

_space_group_name_H-M_alt    "P 1"
_space_group_IT_number       1

loop_
  _space_group_symop_operation_xyz
  'x, y, z'

loop_
  _atom_site_type_symbol
  _atom_site_label
  _atom_site_symmetry_multiplicity
  _atom_site_fract_x
  _atom_site_fract_y
  _atom_site_fract_z
  _atom_site_occupancy
  C   C1        1.0  0.37070  0.73379  0.27205  1.0000
  C   C2        1.0  0.38567  0.77460  0.27916  1.0000
  C   C3        1.0  0.26817  0.63731  0.27204  1.0000
  C   C4        1.0  0.22737  0.61146  0.27914  1.0000
  C   C5        1.0  0.36465  0.63125  0.27208  1.0000
  C   C6        1.0  0.39049  0.61628  0.27922  1.0000
  H   H1        1.0  0.37568  0.72259  0.21506  1.0000
  H   H2        1.0  0.40100  0.79222  0.22646  1.0000
  H   H3        1.0  0.27938  0.65348  0.21505  1.0000
  H   H4        1.0  0.20975  0.60919  0.22646  1.0000
  H   H5        1.0  0.34848  0.62628  0.21509  1.0000
  H   H6        1.0  0.39277  0.60094  0.22654  1.0000
  C   C7        1.0  0.63237  0.26744  0.28023  1.0000
  C   C8        1.0  0.61677  0.22661  0.28960  1.0000
  C   C9        1.0  0.73454  0.36533  0.28025  1.0000
  C   C10       1.0  0.77536  0.39054  0.28963  1.0000
  C   C11       1.0  0.63665  0.36961  0.28022  1.0000
  C   C12       1.0  0.61142  0.38520  0.28957  1.0000
  H   H7        1.0  0.62836  0.27835  0.22162  1.0000
  H   H8        1.0  0.60192  0.20879  0.23681  1.0000
  H   H9        1.0  0.72363  0.35041  0.22164  1.0000
  H   H10       1.0  0.79319  0.39351  0.23685  1.0000
  H   H11       1.0  0.65155  0.37361  0.22160  1.0000
  H   H12       1.0  0.60843  0.40005  0.23677  1.0000
  C   C13       1.0  0.52284  0.48088  0.26416  1.0000
  C   C14       1.0  0.54316  0.45991  0.26273  1.0000
  H   H13       1.0  0.52031  0.49304  0.20581  1.0000
  H   H14       1.0  0.55450  0.45696  0.20357  1.0000
  C   C15       1.0  0.45187  0.55616  0.33867  1.0000
  C   C16       1.0  0.43523  0.51990  0.29299  1.0000
  C   C17       1.0  0.45351  0.49688  0.29421  1.0000
  H   H15       1.0  0.40942  0.50982  0.25861  1.0000
  H   H16       1.0  0.44051  0.47057  0.26107  1.0000
  N   N1        1.0  0.43221  0.57567  0.33594  1.0000
  C   C18       1.0  0.52109  0.04236  0.26418  1.0000
  C   C19       1.0  0.54207  0.08366  0.26276  1.0000
  H   H17       1.0  0.50893  0.02768  0.20582  1.0000
  H   H18       1.0  0.54502  0.09795  0.20361  1.0000
  C   C20       1.0  0.44580  0.89611  0.33863  1.0000
  C   C21       1.0  0.48205  0.91573  0.29296  1.0000
  C   C22       1.0  0.50508  0.95703  0.29421  1.0000
  H   H19       1.0  0.49214  0.90000  0.25857  1.0000
  H   H20       1.0  0.53140  0.97034  0.26108  1.0000
  N   N2        1.0  0.42627  0.85693  0.33585  1.0000
  C   C23       1.0  0.95961  0.47913  0.26419  1.0000
  C   C24       1.0  0.91831  0.45881  0.26277  1.0000
  H   H21       1.0  0.97429  0.48165  0.20582  1.0000
  H   H22       1.0  0.90402  0.44747  0.20362  1.0000
  C   C25       1.0  0.10586  0.55009  0.33863  1.0000
  C   C26       1.0  0.08624  0.56673  0.29296  1.0000
  C   C27       1.0  0.04495  0.54846  0.29422  1.0000
  H   H23       1.0  0.10197  0.59253  0.25858  1.0000
  H   H24       1.0  0.03164  0.56146  0.26108  1.0000
  N   N3        1.0  0.14503  0.56973  0.33586  1.0000
  N   N4        1.0  0.33451  0.66745  0.33575  1.0000
  C   C28       1.0  0.29354  0.64100  0.34274  1.0000
  C   C29       1.0  0.34903  0.70842  0.34274  1.0000
  C   C30       1.0  0.36096  0.65293  0.34276  1.0000
  C   C31       1.0  0.37905  0.79089  0.35709  1.0000
  C   C32       1.0  0.35717  0.76524  0.42758  1.0000
  C   C33       1.0  0.34260  0.72457  0.42076  1.0000
  C   C34       1.0  0.21107  0.58856  0.35709  1.0000
  C   C35       1.0  0.23672  0.59232  0.42758  1.0000
  C   C36       1.0  0.27739  0.61843  0.42077  1.0000
  C   C37       1.0  0.41338  0.62289  0.35717  1.0000
  C   C38       1.0  0.40962  0.64479  0.42764  1.0000
  C   C39       1.0  0.38352  0.65936  0.42079  1.0000
  H   H25       1.0  0.35183  0.77595  0.48502  1.0000
  H   H26       1.0  0.32719  0.70672  0.47300  1.0000
  H   H27       1.0  0.29524  0.62086  0.47300  1.0000
  H   H28       1.0  0.22601  0.57628  0.48503  1.0000
  H   H29       1.0  0.42567  0.65013  0.48509  1.0000
  H   H30       1.0  0.38110  0.67478  0.47302  1.0000
  C   C40       1.0  0.43987  0.60952  0.36552  1.0000
  C   C41       1.0  0.17122  0.56206  0.36540  1.0000
  C   C42       1.0  0.39241  0.83075  0.36539  1.0000
  H   H31       1.0  0.46472  0.62621  0.39849  1.0000
  H   H32       1.0  0.16306  0.53723  0.39845  1.0000
  H   H33       1.0  0.37574  0.83891  0.39844  1.0000
  N   N5        1.0  0.66785  0.33413  0.34156  1.0000
  C   C43       1.0  0.70878  0.36032  0.35107  1.0000
  C   C44       1.0  0.65310  0.29320  0.35106  1.0000
  C   C45       1.0  0.64166  0.34887  0.35106  1.0000
  C   C46       1.0  0.62165  0.21054  0.37008  1.0000
  C   C47       1.0  0.64274  0.23670  0.44058  1.0000
  C   C48       1.0  0.65809  0.27741  0.43138  1.0000
  C   C49       1.0  0.79144  0.41151  0.37011  1.0000
  C   C50       1.0  0.76527  0.40645  0.44060  1.0000
  C   C51       1.0  0.72457  0.38109  0.43139  1.0000
  C   C52       1.0  0.59045  0.38032  0.37004  1.0000
  C   C53       1.0  0.59553  0.35924  0.44056  1.0000
  C   C54       1.0  0.62089  0.34389  0.43137  1.0000
  H   H34       1.0  0.64679  0.22634  0.50006  1.0000
  H   H35       1.0  0.67275  0.29550  0.48387  1.0000
  H   H36       1.0  0.70647  0.37766  0.48387  1.0000
  H   H37       1.0  0.77564  0.42086  0.50008  1.0000
  H   H38       1.0  0.58110  0.35518  0.50002  1.0000
  H   H39       1.0  0.62432  0.32923  0.48385  1.0000
  C   C55       1.0  0.56529  0.39526  0.38199  1.0000
  C   C56       1.0  0.83154  0.43664  0.38211  1.0000
  C   C57       1.0  0.60670  0.17043  0.38205  1.0000
  H   H40       1.0  0.54466  0.38332  0.42893  1.0000
  H   H41       1.0  0.84024  0.45728  0.42903  1.0000
  H   H42       1.0  0.61863  0.16174  0.42899  1.0000
  C   C58       1.0  0.54791  0.44313  0.34141  1.0000
  C   C59       1.0  0.53256  0.44860  0.42209  1.0000
  C   C60       1.0  0.51192  0.46959  0.42525  1.0000
  C   C61       1.0  0.50719  0.48614  0.34469  1.0000
  C   C62       1.0  0.48878  0.50942  0.34223  1.0000
  C   C63       1.0  0.50574  0.54587  0.38729  1.0000
  C   C64       1.0  0.48746  0.56885  0.38587  1.0000
  H   H43       1.0  0.53143  0.55586  0.42207  1.0000
  H   H44       1.0  0.50037  0.59474  0.42035  1.0000
  H   H45       1.0  0.53671  0.43727  0.47990  1.0000
  N   N6        1.0  0.49690  0.47242  0.50507  1.0000
  H   H46       1.0  0.50000  0.46027  0.55880  1.0000
  H   H47       1.0  0.48080  0.48466  0.51035  1.0000
  N   N7        1.0  0.56831  0.42445  0.33654  1.0000
  C   C65       1.0  0.55884  0.10518  0.34144  1.0000
  C   C66       1.0  0.55337  0.08436  0.42212  1.0000
  C   C67       1.0  0.53238  0.04273  0.42527  1.0000
  C   C68       1.0  0.51583  0.02144  0.34470  1.0000
  C   C69       1.0  0.49255  0.97976  0.34224  1.0000
  C   C70       1.0  0.45609  0.96026  0.38728  1.0000
  C   C71       1.0  0.43311  0.91901  0.38584  1.0000
  H   H48       1.0  0.44610  0.97597  0.42206  1.0000
  H   H49       1.0  0.40722  0.90603  0.42031  1.0000
  H   H50       1.0  0.56469  0.09984  0.47993  1.0000
  N   N8        1.0  0.52954  0.02487  0.50509  1.0000
  H   H51       1.0  0.54169  0.04011  0.55882  1.0000
  H   H52       1.0  0.51730  0.99653  0.51036  1.0000
  N   N9        1.0  0.57752  0.14426  0.33657  1.0000
  C   C72       1.0  0.89679  0.45405  0.34146  1.0000
  C   C73       1.0  0.91762  0.46940  0.42213  1.0000
  C   C74       1.0  0.95924  0.49004  0.42528  1.0000
  C   C75       1.0  0.98053  0.49478  0.34470  1.0000
  C   C76       1.0  0.02221  0.51319  0.34224  1.0000
  C   C77       1.0  0.04171  0.49622  0.38727  1.0000
  C   C78       1.0  0.08296  0.51450  0.38583  1.0000
  H   H53       1.0  0.02600  0.47053  0.42205  1.0000
  H   H54       1.0  0.09594  0.50157  0.42029  1.0000
  H   H55       1.0  0.90214  0.46525  0.47995  1.0000
  N   N10       1.0  0.97710  0.50506  0.50509  1.0000
  H   H56       1.0  0.96186  0.50197  0.55882  1.0000
  H   H57       1.0  0.00545  0.52117  0.51036  1.0000
  N   N11       1.0  0.85772  0.43365  0.33660  1.0000
