data_image0
_chemical_formula_structural       C14H6C2H2C2H2C4H2C4H2C4H2C10H6CH2C6H4C4H4C14H6C2H2C2H2C4H2C4H2C4H2C10H6CH2C6H4C4H4C14H6C2H2C2H2C4H2C4H2C4H2C10H6CH2C6H4C4H4C14H6C2H2C2H2C4H2C4H2C4H2C10H6CH2C6H4C4H4
_chemical_formula_sum              "C204 H128"
_cell_length_a       34.591
_cell_length_b       34.591
_cell_length_c       14.8317
_cell_angle_alpha    90
_cell_angle_beta     90
_cell_angle_gamma    90

_space_group_name_H-M_alt    "P 1"
_space_group_IT_number       1

loop_
  _space_group_symop_operation_xyz
  'x, y, z'

loop_
  _atom_site_type_symbol
  _atom_site_label
  _atom_site_symmetry_multiplicity
  _atom_site_fract_x
  _atom_site_fract_y
  _atom_site_fract_z
  _atom_site_occupancy
  C   C1        1.0  0.04320  0.00741  0.25393  1.0000
  C   C2        1.0  0.04088  0.01023  0.15859  1.0000
  C   C3        1.0  0.46799  0.01044  0.16409  1.0000
  C   C4        1.0  0.46833  0.00744  0.25961  1.0000
  C   C5        1.0  0.43184  0.50629  0.30483  1.0000
  C   C6        1.0  0.39632  0.50850  0.25726  1.0000
  C   C7        1.0  0.39739  0.01135  0.16248  1.0000
  C   C8        1.0  0.43268  0.01225  0.11658  1.0000
  C   C9        1.0  0.07480  0.01114  0.10583  1.0000
  C   C10       1.0  0.11122  0.00809  0.14601  1.0000
  C   C11       1.0  0.11507  0.50430  0.24033  1.0000
  C   C12       1.0  0.08089  0.50511  0.29332  1.0000
  C   C13       1.0  0.00627  0.43182  0.31655  1.0000
  C   C14       1.0  0.00514  0.08088  0.32821  1.0000
  H   H1        1.0  0.50433  0.43113  0.24773  1.0000
  H   H2        1.0  0.50254  0.08343  0.25977  1.0000
  H   H3        1.0  0.37236  0.01270  0.12564  1.0000
  H   H4        1.0  0.43236  0.01443  0.04768  1.0000
  H   H5        1.0  0.07326  0.01346  0.03710  1.0000
  H   H6        1.0  0.13508  0.00859  0.10508  1.0000
  C   C15       1.0  0.00652  0.00651  0.31073  1.0000
  C   C16       1.0  0.00372  0.01210  0.10974  1.0000
  H   H7        1.0  0.00297  0.48791  0.06222  1.0000
  H   H8        1.0  0.00329  0.03909  0.07129  1.0000
  C   C17       1.0  0.53870  0.29540  0.31243  1.0000
  C   C18       1.0  0.54109  0.33580  0.32358  1.0000
  H   H9        1.0  0.56343  0.27958  0.32095  1.0000
  H   H10       1.0  0.56726  0.34770  0.34009  1.0000
  C   C19       1.0  0.49978  0.23500  0.30782  1.0000
  C   C20       1.0  0.49980  0.15318  0.34526  1.0000
  C   C21       1.0  0.52772  0.16972  0.28735  1.0000
  C   C22       1.0  0.52774  0.20986  0.26940  1.0000
  H   H11       1.0  0.04997  0.15318  0.26317  1.0000
  H   H12       1.0  0.04947  0.22087  0.23028  1.0000
  C   C23       1.0  0.15319  0.49980  0.27637  1.0000
  C   C24       1.0  0.23504  0.49981  0.31375  1.0000
  C   C25       1.0  0.21776  0.47079  0.25963  1.0000
  C   C26       1.0  0.17784  0.47079  0.24137  1.0000
  H   H13       1.0  0.23448  0.45074  0.22717  1.0000
  H   H14       1.0  0.16723  0.45051  0.19754  1.0000
  C   C27       1.0  0.27655  0.50267  0.31996  1.0000
  C   C28       1.0  0.35915  0.50757  0.29860  1.0000
  C   C29       1.0  0.34089  0.47165  0.31418  1.0000
  C   C30       1.0  0.30043  0.46936  0.32519  1.0000
  H   H15       1.0  0.35644  0.44652  0.30987  1.0000
  H   H16       1.0  0.28829  0.44254  0.33192  1.0000
  C   C31       1.0  0.00743  0.04318  0.36757  1.0000
  C   C32       1.0  0.01024  0.04084  0.46291  1.0000
  C   C33       1.0  0.01041  0.46795  0.45733  1.0000
  C   C34       1.0  0.00742  0.46831  0.36181  1.0000
  C   C35       1.0  0.01220  0.43263  0.50480  1.0000
  C   C36       1.0  0.01129  0.39735  0.45887  1.0000
  C   C37       1.0  0.00844  0.39630  0.36408  1.0000
  C   C38       1.0  0.00432  0.11505  0.38124  1.0000
  C   C39       1.0  0.00811  0.11118  0.47555  1.0000
  C   C40       1.0  0.01117  0.07475  0.51569  1.0000
  H   H17       1.0  0.00861  0.13503  0.51651  1.0000
  H   H18       1.0  0.01347  0.07320  0.58443  1.0000
  H   H19       1.0  0.01438  0.43230  0.57370  1.0000
  H   H20       1.0  0.01263  0.37231  0.49569  1.0000
  H   H21       1.0  0.43113  0.50433  0.37364  1.0000
  H   H22       1.0  0.08343  0.50254  0.36177  1.0000
  C   C41       1.0  0.01209  0.00367  0.51172  1.0000
  H   H23       1.0  0.03908  0.00322  0.55018  1.0000
  H   H24       1.0  0.48789  0.00292  0.55923  1.0000
  C   C42       1.0  0.00753  0.35914  0.32271  1.0000
  C   C43       1.0  0.97160  0.34084  0.30749  1.0000
  C   C44       1.0  0.96930  0.30038  0.29639  1.0000
  C   C45       1.0  0.50262  0.27651  0.30149  1.0000
  C   C46       1.0  0.47076  0.21774  0.36196  1.0000
  C   C47       1.0  0.47078  0.17782  0.38028  1.0000
  H   H25       1.0  0.45081  0.23447  0.39470  1.0000
  H   H26       1.0  0.45060  0.16722  0.42438  1.0000
  H   H27       1.0  0.94646  0.35637  0.31181  1.0000
  H   H28       1.0  0.94248  0.28823  0.28988  1.0000
  C   C48       1.0  0.16976  0.52779  0.33406  1.0000
  C   C49       1.0  0.20990  0.52781  0.35199  1.0000
  C   C50       1.0  0.29542  0.53874  0.30874  1.0000
  C   C51       1.0  0.33582  0.54113  0.29747  1.0000
  H   H29       1.0  0.27962  0.56348  0.30021  1.0000
  H   H30       1.0  0.34772  0.56731  0.28094  1.0000
  H   H31       1.0  0.15324  0.05008  0.35812  1.0000
  H   H32       1.0  0.22092  0.54960  0.39093  1.0000
  C   C52       1.0  0.04320  0.50742  0.25393  1.0000
  C   C53       1.0  0.04088  0.51023  0.15859  1.0000
  C   C54       1.0  0.46799  0.51044  0.16409  1.0000
  C   C55       1.0  0.46833  0.50744  0.25961  1.0000
  C   C56       1.0  0.43184  0.00629  0.30483  1.0000
  C   C57       1.0  0.39632  0.00850  0.25726  1.0000
  C   C58       1.0  0.39739  0.51134  0.16248  1.0000
  C   C59       1.0  0.43268  0.51225  0.11658  1.0000
  C   C60       1.0  0.07480  0.51114  0.10583  1.0000
  C   C61       1.0  0.11122  0.50809  0.14601  1.0000
  C   C62       1.0  0.11507  0.00430  0.24033  1.0000
  C   C63       1.0  0.08089  0.00511  0.29332  1.0000
  C   C64       1.0  0.00627  0.93182  0.31655  1.0000
  C   C65       1.0  0.00514  0.58088  0.32821  1.0000
  H   H33       1.0  0.50433  0.93113  0.24773  1.0000
  H   H34       1.0  0.50254  0.58343  0.25977  1.0000
  H   H35       1.0  0.37236  0.51270  0.12564  1.0000
  H   H36       1.0  0.43236  0.51443  0.04768  1.0000
  H   H37       1.0  0.07326  0.51346  0.03710  1.0000
  H   H38       1.0  0.13508  0.50859  0.10508  1.0000
  C   C66       1.0  0.00652  0.50651  0.31073  1.0000
  C   C67       1.0  0.00372  0.51210  0.10974  1.0000
  H   H39       1.0  0.00297  0.98791  0.06222  1.0000
  H   H40       1.0  0.00329  0.53909  0.07129  1.0000
  C   C68       1.0  0.53870  0.79539  0.31243  1.0000
  C   C69       1.0  0.54109  0.83581  0.32358  1.0000
  H   H41       1.0  0.56343  0.77958  0.32095  1.0000
  H   H42       1.0  0.56726  0.84770  0.34009  1.0000
  C   C70       1.0  0.49978  0.73500  0.30782  1.0000
  C   C71       1.0  0.49980  0.65318  0.34526  1.0000
  C   C72       1.0  0.52772  0.66972  0.28735  1.0000
  C   C73       1.0  0.52774  0.70986  0.26940  1.0000
  H   H43       1.0  0.04997  0.65318  0.26317  1.0000
  H   H44       1.0  0.04947  0.72087  0.23028  1.0000
  C   C74       1.0  0.15319  0.99980  0.27637  1.0000
  C   C75       1.0  0.23504  0.99980  0.31375  1.0000
  C   C76       1.0  0.21776  0.97079  0.25963  1.0000
  C   C77       1.0  0.17784  0.97079  0.24137  1.0000
  H   H45       1.0  0.23448  0.95074  0.22717  1.0000
  H   H46       1.0  0.16723  0.95051  0.19754  1.0000
  C   C78       1.0  0.27655  0.00266  0.31996  1.0000
  C   C79       1.0  0.35915  0.00757  0.29860  1.0000
  C   C80       1.0  0.34089  0.97165  0.31418  1.0000
  C   C81       1.0  0.30043  0.96936  0.32519  1.0000
  H   H47       1.0  0.35644  0.94652  0.30987  1.0000
  H   H48       1.0  0.28829  0.94254  0.33192  1.0000
  C   C82       1.0  0.00743  0.54318  0.36757  1.0000
  C   C83       1.0  0.01024  0.54084  0.46291  1.0000
  C   C84       1.0  0.01041  0.96795  0.45733  1.0000
  C   C85       1.0  0.00742  0.96831  0.36181  1.0000
  C   C86       1.0  0.01220  0.93263  0.50480  1.0000
  C   C87       1.0  0.01129  0.89735  0.45887  1.0000
  C   C88       1.0  0.00844  0.89630  0.36408  1.0000
  C   C89       1.0  0.00432  0.61505  0.38124  1.0000
  C   C90       1.0  0.00811  0.61118  0.47555  1.0000
  C   C91       1.0  0.01117  0.57475  0.51569  1.0000
  H   H49       1.0  0.00861  0.63503  0.51651  1.0000
  H   H50       1.0  0.01347  0.57320  0.58443  1.0000
  H   H51       1.0  0.01438  0.93230  0.57370  1.0000
  H   H52       1.0  0.01263  0.87231  0.49569  1.0000
  H   H53       1.0  0.43113  0.00433  0.37364  1.0000
  H   H54       1.0  0.08343  0.00254  0.36177  1.0000
  C   C92       1.0  0.01209  0.50368  0.51172  1.0000
  H   H55       1.0  0.03908  0.50322  0.55018  1.0000
  H   H56       1.0  0.48789  0.50292  0.55923  1.0000
  C   C93       1.0  0.00753  0.85914  0.32271  1.0000
  C   C94       1.0  0.97160  0.84083  0.30749  1.0000
  C   C95       1.0  0.96930  0.80038  0.29639  1.0000
  C   C96       1.0  0.50262  0.77651  0.30149  1.0000
  C   C97       1.0  0.47076  0.71773  0.36196  1.0000
  C   C98       1.0  0.47078  0.67782  0.38028  1.0000
  H   H57       1.0  0.45081  0.73447  0.39470  1.0000
  H   H58       1.0  0.45060  0.66722  0.42438  1.0000
  H   H59       1.0  0.94646  0.85637  0.31181  1.0000
  H   H60       1.0  0.94248  0.78823  0.28988  1.0000
  C   C99       1.0  0.16976  0.02779  0.33406  1.0000
  C   C100      1.0  0.20990  0.02781  0.35199  1.0000
  C   C101      1.0  0.29542  0.03874  0.30874  1.0000
  C   C102      1.0  0.33582  0.04113  0.29747  1.0000
  H   H61       1.0  0.27962  0.06348  0.30021  1.0000
  H   H62       1.0  0.34772  0.06731  0.28094  1.0000
  H   H63       1.0  0.15324  0.55008  0.35812  1.0000
  H   H64       1.0  0.22092  0.04960  0.39093  1.0000
  C   C103      1.0  0.54320  0.00741  0.25393  1.0000
  C   C104      1.0  0.54088  0.01023  0.15859  1.0000
  C   C105      1.0  0.96799  0.01044  0.16409  1.0000
  C   C106      1.0  0.96833  0.00744  0.25961  1.0000
  C   C107      1.0  0.93183  0.50629  0.30483  1.0000
  C   C108      1.0  0.89632  0.50850  0.25726  1.0000
  C   C109      1.0  0.89739  0.01135  0.16248  1.0000
  C   C110      1.0  0.93268  0.01225  0.11658  1.0000
  C   C111      1.0  0.57480  0.01114  0.10583  1.0000
  C   C112      1.0  0.61122  0.00809  0.14601  1.0000
  C   C113      1.0  0.61507  0.50430  0.24033  1.0000
  C   C114      1.0  0.58089  0.50511  0.29332  1.0000
  C   C115      1.0  0.50627  0.43182  0.31655  1.0000
  C   C116      1.0  0.50514  0.08088  0.32821  1.0000
  H   H65       1.0  0.00433  0.43113  0.24773  1.0000
  H   H66       1.0  0.00254  0.08343  0.25977  1.0000
  H   H67       1.0  0.87236  0.01270  0.12564  1.0000
  H   H68       1.0  0.93236  0.01443  0.04768  1.0000
  H   H69       1.0  0.57326  0.01346  0.03710  1.0000
  H   H70       1.0  0.63509  0.00859  0.10508  1.0000
  C   C117      1.0  0.50652  0.00651  0.31073  1.0000
  C   C118      1.0  0.50372  0.01210  0.10974  1.0000
  H   H71       1.0  0.50297  0.48791  0.06222  1.0000
  H   H72       1.0  0.50329  0.03909  0.07129  1.0000
  C   C119      1.0  0.03870  0.29540  0.31243  1.0000
  C   C120      1.0  0.04109  0.33580  0.32358  1.0000
  H   H73       1.0  0.06343  0.27958  0.32095  1.0000
  H   H74       1.0  0.06727  0.34770  0.34009  1.0000
  C   C121      1.0  0.99978  0.23500  0.30782  1.0000
  C   C122      1.0  0.99980  0.15318  0.34526  1.0000
  C   C123      1.0  0.02773  0.16972  0.28735  1.0000
  C   C124      1.0  0.02774  0.20986  0.26940  1.0000
  H   H75       1.0  0.54997  0.15318  0.26317  1.0000
  H   H76       1.0  0.54946  0.22087  0.23028  1.0000
  C   C125      1.0  0.65319  0.49980  0.27637  1.0000
  C   C126      1.0  0.73504  0.49981  0.31375  1.0000
  C   C127      1.0  0.71776  0.47079  0.25963  1.0000
  C   C128      1.0  0.67784  0.47079  0.24137  1.0000
  H   H77       1.0  0.73448  0.45074  0.22717  1.0000
  H   H78       1.0  0.66723  0.45051  0.19754  1.0000
  C   C129      1.0  0.77655  0.50267  0.31996  1.0000
  C   C130      1.0  0.85915  0.50757  0.29860  1.0000
  C   C131      1.0  0.84089  0.47165  0.31418  1.0000
  C   C132      1.0  0.80043  0.46936  0.32519  1.0000
  H   H79       1.0  0.85644  0.44652  0.30987  1.0000
  H   H80       1.0  0.78829  0.44254  0.33192  1.0000
  C   C133      1.0  0.50743  0.04318  0.36757  1.0000
  C   C134      1.0  0.51024  0.04084  0.46291  1.0000
  C   C135      1.0  0.51041  0.46795  0.45733  1.0000
  C   C136      1.0  0.50742  0.46831  0.36181  1.0000
  C   C137      1.0  0.51220  0.43263  0.50480  1.0000
  C   C138      1.0  0.51128  0.39735  0.45887  1.0000
  C   C139      1.0  0.50844  0.39630  0.36408  1.0000
  C   C140      1.0  0.50432  0.11505  0.38124  1.0000
  C   C141      1.0  0.50811  0.11118  0.47555  1.0000
  C   C142      1.0  0.51116  0.07475  0.51569  1.0000
  H   H81       1.0  0.50861  0.13503  0.51651  1.0000
  H   H82       1.0  0.51347  0.07320  0.58443  1.0000
  H   H83       1.0  0.51437  0.43230  0.57370  1.0000
  H   H84       1.0  0.51263  0.37231  0.49569  1.0000
  H   H85       1.0  0.93113  0.50433  0.37364  1.0000
  H   H86       1.0  0.58343  0.50254  0.36177  1.0000
  C   C143      1.0  0.51209  0.00367  0.51172  1.0000
  H   H87       1.0  0.53908  0.00322  0.55018  1.0000
  H   H88       1.0  0.98789  0.00292  0.55923  1.0000
  C   C144      1.0  0.50753  0.35914  0.32271  1.0000
  C   C145      1.0  0.47160  0.34084  0.30749  1.0000
  C   C146      1.0  0.46930  0.30038  0.29639  1.0000
  C   C147      1.0  0.00262  0.27651  0.30149  1.0000
  C   C148      1.0  0.97076  0.21774  0.36196  1.0000
  C   C149      1.0  0.97078  0.17782  0.38028  1.0000
  H   H89       1.0  0.95081  0.23447  0.39470  1.0000
  H   H90       1.0  0.95060  0.16722  0.42438  1.0000
  H   H91       1.0  0.44646  0.35637  0.31181  1.0000
  H   H92       1.0  0.44248  0.28823  0.28988  1.0000
  C   C150      1.0  0.66976  0.52779  0.33406  1.0000
  C   C151      1.0  0.70990  0.52781  0.35199  1.0000
  C   C152      1.0  0.79542  0.53874  0.30874  1.0000
  C   C153      1.0  0.83582  0.54113  0.29747  1.0000
  H   H93       1.0  0.77962  0.56348  0.30021  1.0000
  H   H94       1.0  0.84772  0.56731  0.28094  1.0000
  H   H95       1.0  0.65324  0.05008  0.35812  1.0000
  H   H96       1.0  0.72092  0.54960  0.39093  1.0000
  C   C154      1.0  0.54320  0.50742  0.25393  1.0000
  C   C155      1.0  0.54088  0.51023  0.15859  1.0000
  C   C156      1.0  0.96799  0.51044  0.16409  1.0000
  C   C157      1.0  0.96833  0.50744  0.25961  1.0000
  C   C158      1.0  0.93183  0.00629  0.30483  1.0000
  C   C159      1.0  0.89632  0.00850  0.25726  1.0000
  C   C160      1.0  0.89739  0.51134  0.16248  1.0000
  C   C161      1.0  0.93268  0.51225  0.11658  1.0000
  C   C162      1.0  0.57480  0.51114  0.10583  1.0000
  C   C163      1.0  0.61122  0.50809  0.14601  1.0000
  C   C164      1.0  0.61507  0.00430  0.24033  1.0000
  C   C165      1.0  0.58089  0.00511  0.29332  1.0000
  C   C166      1.0  0.50627  0.93182  0.31655  1.0000
  C   C167      1.0  0.50514  0.58088  0.32821  1.0000
  H   H97       1.0  0.00433  0.93113  0.24773  1.0000
  H   H98       1.0  0.00254  0.58343  0.25977  1.0000
  H   H99       1.0  0.87236  0.51270  0.12564  1.0000
  H   H100      1.0  0.93236  0.51443  0.04768  1.0000
  H   H101      1.0  0.57326  0.51346  0.03710  1.0000
  H   H102      1.0  0.63509  0.50859  0.10508  1.0000
  C   C168      1.0  0.50652  0.50651  0.31073  1.0000
  C   C169      1.0  0.50372  0.51210  0.10974  1.0000
  H   H103      1.0  0.50297  0.98791  0.06222  1.0000
  H   H104      1.0  0.50329  0.53909  0.07129  1.0000
  C   C170      1.0  0.03870  0.79539  0.31243  1.0000
  C   C171      1.0  0.04109  0.83581  0.32358  1.0000
  H   H105      1.0  0.06343  0.77958  0.32095  1.0000
  H   H106      1.0  0.06727  0.84770  0.34009  1.0000
  C   C172      1.0  0.99978  0.73500  0.30782  1.0000
  C   C173      1.0  0.99980  0.65318  0.34526  1.0000
  C   C174      1.0  0.02773  0.66972  0.28735  1.0000
  C   C175      1.0  0.02774  0.70986  0.26940  1.0000
  H   H107      1.0  0.54997  0.65318  0.26317  1.0000
  H   H108      1.0  0.54946  0.72087  0.23028  1.0000
  C   C176      1.0  0.65319  0.99980  0.27637  1.0000
  C   C177      1.0  0.73504  0.99980  0.31375  1.0000
  C   C178      1.0  0.71776  0.97079  0.25963  1.0000
  C   C179      1.0  0.67784  0.97079  0.24137  1.0000
  H   H109      1.0  0.73448  0.95074  0.22717  1.0000
  H   H110      1.0  0.66723  0.95051  0.19754  1.0000
  C   C180      1.0  0.77655  0.00266  0.31996  1.0000
  C   C181      1.0  0.85915  0.00757  0.29860  1.0000
  C   C182      1.0  0.84089  0.97165  0.31418  1.0000
  C   C183      1.0  0.80043  0.96936  0.32519  1.0000
  H   H111      1.0  0.85644  0.94652  0.30987  1.0000
  H   H112      1.0  0.78829  0.94254  0.33192  1.0000
  C   C184      1.0  0.50743  0.54318  0.36757  1.0000
  C   C185      1.0  0.51024  0.54084  0.46291  1.0000
  C   C186      1.0  0.51041  0.96795  0.45733  1.0000
  C   C187      1.0  0.50742  0.96831  0.36181  1.0000
  C   C188      1.0  0.51220  0.93263  0.50480  1.0000
  C   C189      1.0  0.51128  0.89735  0.45887  1.0000
  C   C190      1.0  0.50844  0.89630  0.36408  1.0000
  C   C191      1.0  0.50432  0.61505  0.38124  1.0000
  C   C192      1.0  0.50811  0.61118  0.47555  1.0000
  C   C193      1.0  0.51116  0.57475  0.51569  1.0000
  H   H113      1.0  0.50861  0.63503  0.51651  1.0000
  H   H114      1.0  0.51347  0.57320  0.58443  1.0000
  H   H115      1.0  0.51437  0.93230  0.57370  1.0000
  H   H116      1.0  0.51263  0.87231  0.49569  1.0000
  H   H117      1.0  0.93113  0.00433  0.37364  1.0000
  H   H118      1.0  0.58343  0.00254  0.36177  1.0000
  C   C194      1.0  0.51209  0.50368  0.51172  1.0000
  H   H119      1.0  0.53908  0.50322  0.55018  1.0000
  H   H120      1.0  0.98789  0.50292  0.55923  1.0000
  C   C195      1.0  0.50753  0.85914  0.32271  1.0000
  C   C196      1.0  0.47160  0.84083  0.30749  1.0000
  C   C197      1.0  0.46930  0.80038  0.29639  1.0000
  C   C198      1.0  0.00262  0.77651  0.30149  1.0000
  C   C199      1.0  0.97076  0.71773  0.36196  1.0000
  C   C200      1.0  0.97078  0.67782  0.38028  1.0000
  H   H121      1.0  0.95081  0.73447  0.39470  1.0000
  H   H122      1.0  0.95060  0.66722  0.42438  1.0000
  H   H123      1.0  0.44646  0.85637  0.31181  1.0000
  H   H124      1.0  0.44248  0.78823  0.28988  1.0000
  C   C201      1.0  0.66976  0.02779  0.33406  1.0000
  C   C202      1.0  0.70990  0.02781  0.35199  1.0000
  C   C203      1.0  0.79542  0.03874  0.30874  1.0000
  C   C204      1.0  0.83582  0.04113  0.29747  1.0000
  H   H125      1.0  0.77962  0.06348  0.30021  1.0000
  H   H126      1.0  0.84772  0.06731  0.28094  1.0000
  H   H127      1.0  0.65324  0.55008  0.35812  1.0000
  H   H128      1.0  0.72092  0.04960  0.39093  1.0000
