data_image0
_chemical_formula_structural       C3H2C4HNO2C3H2C4HNO2C3H2C4HNO2C5H3NO2C5H3NO2C5H3NO2C6H3C6H3C6H3C6H3C5H3NO2C5H3NO2C5H3NO2C3H2C4HNO2C3H2C4HNO2C3H2C4HNO2
_chemical_formula_sum              "C96 H48 N12 O24"
_cell_length_a       34.3938
_cell_length_b       34.4043
_cell_length_c       14.8168
_cell_angle_alpha    90
_cell_angle_beta     90
_cell_angle_gamma    119.993

_space_group_name_H-M_alt    "P 1"
_space_group_IT_number       1

loop_
  _space_group_symop_operation_xyz
  'x, y, z'

loop_
  _atom_site_type_symbol
  _atom_site_label
  _atom_site_symmetry_multiplicity
  _atom_site_fract_x
  _atom_site_fract_y
  _atom_site_fract_z
  _atom_site_occupancy
  C   C1        1.0  0.24580  0.12360  0.34605  1.0000
  C   C2        1.0  0.27060  0.16079  0.28856  1.0000
  C   C3        1.0  0.31794  0.18410  0.28873  1.0000
  H   H1        1.0  0.25426  0.17133  0.24597  1.0000
  H   H2        1.0  0.33431  0.21025  0.24459  1.0000
  C   C4        1.0  0.19763  0.09976  0.34584  1.0000
  C   C5        1.0  0.10142  0.05190  0.34562  1.0000
  C   C6        1.0  0.12573  0.05260  0.26843  1.0000
  C   C7        1.0  0.17334  0.07653  0.26719  1.0000
  H   H3        1.0  0.10866  0.03588  0.21150  1.0000
  N   N1        1.0  0.19698  0.07677  0.18862  1.0000
  O   O1        1.0  0.18810  0.03787  0.16696  1.0000
  O   O2        1.0  0.18819  0.09418  0.12288  1.0000
  C   C8        1.0  0.88667  0.12517  0.34602  1.0000
  C   C9        1.0  0.84947  0.11282  0.28853  1.0000
  C   C10       1.0  0.82622  0.13690  0.28869  1.0000
  H   H4        1.0  0.83890  0.08594  0.24596  1.0000
  H   H5        1.0  0.80006  0.12715  0.24457  1.0000
  C   C11       1.0  0.91047  0.10080  0.34581  1.0000
  C   C12       1.0  0.95822  0.05234  0.34557  1.0000
  C   C13       1.0  0.95754  0.07596  0.26839  1.0000
  C   C14       1.0  0.93366  0.09970  0.26714  1.0000
  H   H6        1.0  0.97425  0.07558  0.21145  1.0000
  N   N2        1.0  0.93345  0.12309  0.18856  1.0000
  O   O3        1.0  0.97238  0.15307  0.16689  1.0000
  O   O4        1.0  0.91600  0.09689  0.12284  1.0000
  C   C15       1.0  0.88508  0.76439  0.34606  1.0000
  C   C16       1.0  0.89747  0.73958  0.28859  1.0000
  C   C17       1.0  0.87343  0.69225  0.28876  1.0000
  H   H7        1.0  0.92436  0.75590  0.24601  1.0000
  H   H8        1.0  0.88321  0.67587  0.24464  1.0000
  C   C18       1.0  0.90941  0.81254  0.34584  1.0000
  C   C19       1.0  0.95779  0.90873  0.34561  1.0000
  C   C20       1.0  0.93419  0.88443  0.26841  1.0000
  C   C21       1.0  0.91050  0.83683  0.26718  1.0000
  H   H9        1.0  0.93456  0.90150  0.21147  1.0000
  N   N3        1.0  0.88712  0.81321  0.18859  1.0000
  O   O5        1.0  0.85711  0.82211  0.16689  1.0000
  O   O6        1.0  0.91334  0.82198  0.12288  1.0000
  C   C22       1.0  0.69659  0.17999  0.32787  1.0000
  C   C23       1.0  0.67866  0.19670  0.26245  1.0000
  C   C24       1.0  0.63395  0.18711  0.26765  1.0000
  C   C25       1.0  0.53094  0.14414  0.27897  1.0000
  C   C26       1.0  0.49412  0.15169  0.28600  1.0000
  H   H10       1.0  0.47372  0.14541  0.23108  1.0000
  H   H11       1.0  0.69919  0.21947  0.21517  1.0000
  H   H12       1.0  0.62380  0.20350  0.22430  1.0000
  N   N4        1.0  0.53743  0.12519  0.19938  1.0000
  O   O7        1.0  0.54196  0.14868  0.13086  1.0000
  O   O8        1.0  0.50525  0.08623  0.18610  1.0000
  C   C27       1.0  0.83037  0.51956  0.32784  1.0000
  C   C28       1.0  0.81366  0.48494  0.26242  1.0000
  C   C29       1.0  0.82327  0.44984  0.26763  1.0000
  C   C30       1.0  0.86627  0.38984  0.27896  1.0000
  C   C31       1.0  0.85872  0.34548  0.28601  1.0000
  H   H13       1.0  0.86500  0.33135  0.23110  1.0000
  H   H14       1.0  0.79088  0.48268  0.21514  1.0000
  H   H15       1.0  0.80688  0.42330  0.22429  1.0000
  N   N5        1.0  0.88520  0.41526  0.19934  1.0000
  O   O9        1.0  0.86169  0.39628  0.13085  1.0000
  O   O10       1.0  0.92417  0.42204  0.18604  1.0000
  C   C32       1.0  0.49064  0.31378  0.32784  1.0000
  C   C33       1.0  0.52527  0.33171  0.26241  1.0000
  C   C34       1.0  0.56039  0.37641  0.26762  1.0000
  C   C35       1.0  0.62043  0.47938  0.27900  1.0000
  C   C36       1.0  0.66481  0.51618  0.28605  1.0000
  H   H16       1.0  0.67893  0.53658  0.23115  1.0000
  H   H17       1.0  0.52752  0.31119  0.21509  1.0000
  H   H18       1.0  0.58693  0.38655  0.22427  1.0000
  N   N6        1.0  0.59500  0.47290  0.19941  1.0000
  O   O11       1.0  0.61397  0.46837  0.13089  1.0000
  O   O12       1.0  0.58821  0.50508  0.18615  1.0000
  C   C37       1.0  0.05360  0.02810  0.34553  1.0000
  C   C38       1.0  0.02951  0.05152  0.34553  1.0000
  C   C39       1.0  0.98201  0.02832  0.34551  1.0000
  C   C40       1.0  0.95859  0.98083  0.34552  1.0000
  C   C41       1.0  0.98180  0.95654  0.34553  1.0000
  C   C42       1.0  0.02931  0.98061  0.34554  1.0000
  H   H19       1.0  0.92418  0.96371  0.34555  1.0000
  H   H20       1.0  0.04644  0.96334  0.34557  1.0000
  H   H21       1.0  0.04679  0.08592  0.34555  1.0000
  C   C43       1.0  0.46246  0.19431  0.35579  1.0000
  C   C44       1.0  0.48600  0.24141  0.34727  1.0000
  C   C45       1.0  0.46376  0.26623  0.33729  1.0000
  C   C46       1.0  0.41626  0.24268  0.33931  1.0000
  C   C47       1.0  0.39096  0.19505  0.34641  1.0000
  C   C48       1.0  0.41506  0.17149  0.35320  1.0000
  H   H22       1.0  0.40004  0.26072  0.33479  1.0000
  H   H23       1.0  0.39808  0.13718  0.35658  1.0000
  H   H24       1.0  0.52046  0.25810  0.34799  1.0000
  C   C49       1.0  0.81611  0.27122  0.35587  1.0000
  C   C50       1.0  0.76900  0.24769  0.34733  1.0000
  C   C51       1.0  0.74416  0.20064  0.33733  1.0000
  C   C52       1.0  0.76769  0.17668  0.33932  1.0000
  C   C53       1.0  0.81533  0.19899  0.34640  1.0000
  C   C54       1.0  0.83892  0.24664  0.35321  1.0000
  H   H25       1.0  0.74963  0.14243  0.33479  1.0000
  H   H26       1.0  0.87324  0.26395  0.35659  1.0000
  H   H27       1.0  0.75231  0.26545  0.34805  1.0000
  C   C55       1.0  0.73910  0.54781  0.35588  1.0000
  C   C56       1.0  0.76265  0.52426  0.34732  1.0000
  C   C57       1.0  0.80971  0.54647  0.33731  1.0000
  C   C58       1.0  0.83366  0.59395  0.33933  1.0000
  C   C59       1.0  0.81134  0.61927  0.34645  1.0000
  C   C60       1.0  0.76367  0.59519  0.35325  1.0000
  H   H28       1.0  0.86793  0.61015  0.33480  1.0000
  H   H29       1.0  0.74635  0.61219  0.35662  1.0000
  H   H30       1.0  0.74489  0.48981  0.34803  1.0000
  C   C61       1.0  0.34258  0.17135  0.34638  1.0000
  C   C62       1.0  0.31739  0.13406  0.40395  1.0000
  C   C63       1.0  0.27007  0.11065  0.40377  1.0000
  C   C64       1.0  0.17332  0.09881  0.42438  1.0000
  C   C65       1.0  0.12571  0.07539  0.42291  1.0000
  H   H31       1.0  0.10863  0.07509  0.47978  1.0000
  H   H32       1.0  0.33337  0.12385  0.44819  1.0000
  H   H33       1.0  0.25335  0.08377  0.44619  1.0000
  N   N7        1.0  0.19693  0.12201  0.50312  1.0000
  O   O13       1.0  0.18790  0.09571  0.56876  1.0000
  O   O14       1.0  0.18829  0.15219  0.52480  1.0000
  C   C66       1.0  0.83901  0.17429  0.34634  1.0000
  C   C67       1.0  0.87630  0.18635  0.40390  1.0000
  C   C68       1.0  0.89968  0.16240  0.40372  1.0000
  C   C69       1.0  0.91139  0.07744  0.42436  1.0000
  C   C70       1.0  0.93476  0.05320  0.42288  1.0000
  H   H34       1.0  0.93505  0.03643  0.47976  1.0000
  H   H35       1.0  0.88656  0.21254  0.44811  1.0000
  H   H36       1.0  0.92656  0.17253  0.44612  1.0000
  N   N8        1.0  0.88822  0.07791  0.50311  1.0000
  O   O15       1.0  0.91455  0.09515  0.56873  1.0000
  O   O16       1.0  0.85800  0.03911  0.52484  1.0000
  C   C71       1.0  0.83603  0.66764  0.34640  1.0000
  C   C72       1.0  0.82393  0.69284  0.40395  1.0000
  C   C73       1.0  0.84785  0.74015  0.40377  1.0000
  C   C74       1.0  0.93276  0.83684  0.42440  1.0000
  C   C75       1.0  0.95695  0.88444  0.42292  1.0000
  H   H37       1.0  0.97373  0.90151  0.47980  1.0000
  H   H38       1.0  0.79774  0.67689  0.44817  1.0000
  H   H39       1.0  0.83769  0.75688  0.44616  1.0000
  N   N9        1.0  0.93232  0.81323  0.50316  1.0000
  O   O17       1.0  0.91504  0.82229  0.56877  1.0000
  O   O18       1.0  0.97114  0.82186  0.52490  1.0000
  C   C76       1.0  0.60505  0.15937  0.33680  1.0000
  C   C77       1.0  0.62208  0.14005  0.39838  1.0000
  C   C78       1.0  0.66724  0.15033  0.39430  1.0000
  H   H40       1.0  0.60250  0.12079  0.45075  1.0000
  H   H41       1.0  0.67948  0.13916  0.44494  1.0000
  C   C79       1.0  0.56287  0.15754  0.35035  1.0000
  C   C80       1.0  0.48830  0.17256  0.36257  1.0000
  C   C81       1.0  0.51876  0.18357  0.43482  1.0000
  C   C82       1.0  0.55605  0.17682  0.42958  1.0000
  H   H42       1.0  0.51631  0.20070  0.48911  1.0000
  N   N10       1.0  0.58863  0.19325  0.49946  1.0000
  O   O19       1.0  0.60669  0.23507  0.50873  1.0000
  O   O20       1.0  0.57193  0.17478  0.57374  1.0000
  C   C83       1.0  0.85103  0.44870  0.33679  1.0000
  C   C84       1.0  0.87035  0.48505  0.39835  1.0000
  C   C85       1.0  0.86006  0.51991  0.39426  1.0000
  H   H43       1.0  0.88963  0.48474  0.45071  1.0000
  H   H44       1.0  0.87122  0.54331  0.44489  1.0000
  C   C86       1.0  0.85287  0.40837  0.35035  1.0000
  C   C87       1.0  0.83788  0.31882  0.36262  1.0000
  C   C88       1.0  0.82688  0.33826  0.43487  1.0000
  C   C89       1.0  0.83361  0.38228  0.42961  1.0000
  H   H45       1.0  0.80976  0.31871  0.48918  1.0000
  N   N11       1.0  0.81720  0.39844  0.49950  1.0000
  O   O21       1.0  0.77536  0.37467  0.50881  1.0000
  O   O22       1.0  0.83569  0.40023  0.57376  1.0000
  C   C90       1.0  0.56156  0.40529  0.33681  1.0000
  C   C91       1.0  0.52521  0.38826  0.39841  1.0000
  C   C92       1.0  0.49033  0.34311  0.39430  1.0000
  H   H46       1.0  0.52553  0.40783  0.45080  1.0000
  H   H47       1.0  0.46694  0.33088  0.44496  1.0000
  C   C93       1.0  0.60191  0.44745  0.35037  1.0000
  C   C94       1.0  0.69149  0.52198  0.36264  1.0000
  C   C95       1.0  0.67205  0.49153  0.43488  1.0000
  C   C96       1.0  0.62801  0.45426  0.42961  1.0000
  H   H48       1.0  0.69161  0.49397  0.48916  1.0000
  N   N12       1.0  0.61186  0.42169  0.49948  1.0000
  O   O23       1.0  0.63563  0.40362  0.50874  1.0000
  O   O24       1.0  0.61007  0.43837  0.57376  1.0000
