data_image0
_chemical_formula_structural       C8H6NC2H2C8H6NC2H2C8H6NC2H2C8H6NC2H2C8H6NC2H2C8H6NC2H2C6H4NC6H4NC6H4NC4H2C2H2NC4H2C2H2NC4H2C2H2NC4H2C2H2NC4H2C2H2NC4H2C2H2NC10H4CNCNHCHCHC10H4CNCNHCHCHC10H4CNCNHCHCHC10H4CNCNHCHCHC10H4CNCNHCHCHC10H4CNCNHCHCHC4H2C2H2NC4H2C2H2NC4H2C2H2NC6H4NC6H4NC6H4NC6H4NC6H4NC6H4N
_chemical_formula_sum              "C252 H162 N36"
_cell_length_a       91.7263
_cell_length_b       91.7262
_cell_length_c       14.9983
_cell_angle_alpha    90
_cell_angle_beta     90
_cell_angle_gamma    120

_space_group_name_H-M_alt    "P 1"
_space_group_IT_number       1

loop_
  _space_group_symop_operation_xyz
  'x, y, z'

loop_
  _atom_site_type_symbol
  _atom_site_label
  _atom_site_symmetry_multiplicity
  _atom_site_fract_x
  _atom_site_fract_y
  _atom_site_fract_z
  _atom_site_occupancy
  C   C1        1.0  0.12506  0.56559  0.30877  1.0000
  C   C2        1.0  0.08938  0.55018  0.28706  1.0000
  C   C3        1.0  0.09982  0.56781  0.28048  1.0000
  C   C4        1.0  0.11732  0.57537  0.29193  1.0000
  C   C5        1.0  0.17115  0.62604  0.35683  1.0000
  C   C6        1.0  0.18055  0.64355  0.37047  1.0000
  C   C7        1.0  0.17630  0.53560  0.29461  1.0000
  C   C8        1.0  0.16773  0.54472  0.30187  1.0000
  H   H1        1.0  0.09476  0.57534  0.26757  1.0000
  H   H2        1.0  0.12438  0.58818  0.28617  1.0000
  H   H3        1.0  0.15840  0.62067  0.34925  1.0000
  H   H4        1.0  0.17439  0.65028  0.37218  1.0000
  H   H5        1.0  0.16952  0.52301  0.28024  1.0000
  H   H6        1.0  0.15498  0.53839  0.29212  1.0000
  N   N1        1.0  0.15241  0.59024  0.33140  1.0000
  C   C9        1.0  0.14285  0.57334  0.31906  1.0000
  C   C10       1.0  0.07224  0.54297  0.27350  1.0000
  H   H7        1.0  0.06821  0.54733  0.22419  1.0000
  H   H8        1.0  0.19824  0.52534  0.25297  1.0000
  C   C11       1.0  0.43458  0.55962  0.30862  1.0000
  C   C12       1.0  0.44996  0.53932  0.28697  1.0000
  C   C13       1.0  0.43234  0.53214  0.28029  1.0000
  C   C14       1.0  0.42479  0.54210  0.29168  1.0000
  C   C15       1.0  0.37415  0.54524  0.35709  1.0000
  C   C16       1.0  0.35665  0.53712  0.37070  1.0000
  C   C17       1.0  0.46460  0.64084  0.29483  1.0000
  C   C18       1.0  0.45547  0.62315  0.30201  1.0000
  H   H9        1.0  0.42480  0.51956  0.26738  1.0000
  H   H10       1.0  0.41197  0.53635  0.28592  1.0000
  H   H11       1.0  0.37954  0.53788  0.34983  1.0000
  H   H12       1.0  0.34993  0.52424  0.37264  1.0000
  H   H13       1.0  0.47720  0.64664  0.28065  1.0000
  H   H14       1.0  0.46181  0.61673  0.29247  1.0000
  N   N2        1.0  0.40993  0.56232  0.33130  1.0000
  C   C19       1.0  0.42683  0.56965  0.31895  1.0000
  C   C20       1.0  0.45715  0.52938  0.27355  1.0000
  H   H15       1.0  0.45285  0.52104  0.22399  1.0000
  H   H16       1.0  0.47496  0.67304  0.25339  1.0000
  C   C21       1.0  0.44058  0.87494  0.30849  1.0000
  C   C22       1.0  0.46094  0.91062  0.28707  1.0000
  C   C23       1.0  0.46809  0.90014  0.28034  1.0000
  C   C24       1.0  0.45810  0.88264  0.29165  1.0000
  C   C25       1.0  0.45472  0.82864  0.35500  1.0000
  C   C26       1.0  0.46277  0.81919  0.36923  1.0000
  C   C27       1.0  0.35930  0.82388  0.29459  1.0000
  C   C28       1.0  0.37699  0.83242  0.30175  1.0000
  H   H17       1.0  0.48067  0.90517  0.26742  1.0000
  H   H18       1.0  0.46382  0.87555  0.28578  1.0000
  H   H19       1.0  0.46214  0.84134  0.34593  1.0000
  H   H20       1.0  0.47566  0.82527  0.36991  1.0000
  H   H21       1.0  0.35352  0.83068  0.28016  1.0000
  H   H22       1.0  0.38343  0.84516  0.29190  1.0000
  N   N3        1.0  0.43779  0.84754  0.33096  1.0000
  C   C29       1.0  0.43050  0.85715  0.31870  1.0000
  C   C30       1.0  0.47091  0.92776  0.27370  1.0000
  H   H23       1.0  0.47929  0.93179  0.22436  1.0000
  H   H24       1.0  0.32708  0.80200  0.25316  1.0000
  C   C31       1.0  0.87423  0.43280  0.33349  1.0000
  C   C32       1.0  0.91012  0.44740  0.34713  1.0000
  C   C33       1.0  0.89931  0.42975  0.34760  1.0000
  C   C34       1.0  0.88177  0.42262  0.34081  1.0000
  C   C35       1.0  0.82524  0.37213  0.34550  1.0000
  C   C36       1.0  0.81488  0.35469  0.35931  1.0000
  C   C37       1.0  0.82488  0.46517  0.29412  1.0000
  C   C38       1.0  0.83303  0.45564  0.30179  1.0000
  H   H25       1.0  0.90411  0.42182  0.35337  1.0000
  H   H26       1.0  0.87457  0.40977  0.34204  1.0000
  H   H27       1.0  0.83778  0.37669  0.33394  1.0000
  H   H28       1.0  0.82015  0.34713  0.35819  1.0000
  H   H29       1.0  0.83206  0.47797  0.28743  1.0000
  H   H30       1.0  0.84590  0.46187  0.30019  1.0000
  N   N4        1.0  0.84614  0.40849  0.33759  1.0000
  C   C39       1.0  0.85637  0.42544  0.32961  1.0000
  C   C40       1.0  0.92739  0.45399  0.35645  1.0000
  H   H31       1.0  0.93150  0.44639  0.37756  1.0000
  H   H32       1.0  0.80371  0.47648  0.24782  1.0000
  C   C41       1.0  0.56728  0.44152  0.33341  1.0000
  C   C42       1.0  0.55260  0.46273  0.34725  1.0000
  C   C43       1.0  0.57026  0.46962  0.34747  1.0000
  C   C44       1.0  0.57743  0.45925  0.34058  1.0000
  C   C45       1.0  0.62793  0.45356  0.34705  1.0000
  C   C46       1.0  0.64537  0.46079  0.36125  1.0000
  C   C47       1.0  0.53520  0.35986  0.29383  1.0000
  C   C48       1.0  0.54468  0.37754  0.30153  1.0000
  H   H33       1.0  0.57817  0.48235  0.35312  1.0000
  H   H34       1.0  0.59028  0.46493  0.34163  1.0000
  H   H35       1.0  0.62324  0.46147  0.33691  1.0000
  H   H36       1.0  0.65279  0.47363  0.36170  1.0000
  H   H37       1.0  0.52240  0.35421  0.28722  1.0000
  H   H38       1.0  0.53841  0.38414  0.30005  1.0000
  N   N5        1.0  0.59165  0.43785  0.33737  1.0000
  C   C49       1.0  0.57469  0.43106  0.32948  1.0000
  C   C50       1.0  0.54599  0.47338  0.35669  1.0000
  H   H39       1.0  0.55357  0.48509  0.37779  1.0000
  H   H40       1.0  0.52395  0.32739  0.24750  1.0000
  C   C51       1.0  0.55877  0.12577  0.33359  1.0000
  C   C52       1.0  0.53755  0.08988  0.34733  1.0000
  C   C53       1.0  0.53066  0.10065  0.34753  1.0000
  C   C54       1.0  0.54104  0.11819  0.34070  1.0000
  C   C55       1.0  0.54662  0.17422  0.34801  1.0000
  C   C56       1.0  0.53932  0.18437  0.36224  1.0000
  C   C57       1.0  0.64042  0.17536  0.29417  1.0000
  C   C58       1.0  0.62274  0.16718  0.30184  1.0000
  H   H41       1.0  0.51793  0.09583  0.35312  1.0000
  H   H42       1.0  0.53536  0.12536  0.34171  1.0000
  H   H43       1.0  0.53875  0.16159  0.33891  1.0000
  H   H44       1.0  0.52648  0.17887  0.36371  1.0000
  H   H45       1.0  0.64606  0.16821  0.28759  1.0000
  H   H46       1.0  0.61613  0.15430  0.30033  1.0000
  N   N6        1.0  0.56242  0.15380  0.33743  1.0000
  C   C59       1.0  0.56923  0.14364  0.32966  1.0000
  C   C60       1.0  0.52688  0.07261  0.35670  1.0000
  H   H47       1.0  0.51518  0.06849  0.37786  1.0000
  H   H48       1.0  0.67288  0.19650  0.24835  1.0000
  C   C61       1.0  0.03525  0.51888  0.24692  1.0000
  C   C62       1.0  0.01756  0.51012  0.25050  1.0000
  C   C63       1.0  0.99098  0.49659  0.33639  1.0000
  C   C64       1.0  0.98130  0.50097  0.28071  1.0000
  C   C65       1.0  0.96359  0.49170  0.28237  1.0000
  C   C66       1.0  0.95500  0.47762  0.33879  1.0000
  H   H49       1.0  0.98706  0.51111  0.23881  1.0000
  H   H50       1.0  0.95699  0.49518  0.24090  1.0000
  H   H51       1.0  0.04104  0.52157  0.18601  1.0000
  H   H52       1.0  0.01102  0.50663  0.19174  1.0000
  N   N7        1.0  0.93825  0.46925  0.33565  1.0000
  C   C67       1.0  0.48126  0.51650  0.24708  1.0000
  C   C68       1.0  0.49001  0.50755  0.25067  1.0000
  C   C69       1.0  0.50343  0.49440  0.33660  1.0000
  C   C70       1.0  0.49907  0.48036  0.28066  1.0000
  C   C71       1.0  0.50832  0.47191  0.28234  1.0000
  C   C72       1.0  0.52235  0.47735  0.33904  1.0000
  H   H53       1.0  0.48897  0.47604  0.23853  1.0000
  H   H54       1.0  0.50486  0.46186  0.24065  1.0000
  H   H55       1.0  0.47862  0.51964  0.18617  1.0000
  H   H56       1.0  0.49353  0.50453  0.19192  1.0000
  N   N8        1.0  0.53072  0.46896  0.33585  1.0000
  C   C73       1.0  0.48379  0.96475  0.24704  1.0000
  C   C74       1.0  0.49273  0.98244  0.25062  1.0000
  C   C75       1.0  0.50584  0.00902  0.33653  1.0000
  C   C76       1.0  0.51989  0.01870  0.28069  1.0000
  C   C77       1.0  0.52835  0.03641  0.28237  1.0000
  C   C78       1.0  0.52290  0.04501  0.33902  1.0000
  H   H57       1.0  0.52423  0.01293  0.23859  1.0000
  H   H58       1.0  0.53841  0.04300  0.24074  1.0000
  H   H59       1.0  0.48066  0.95896  0.18614  1.0000
  H   H60       1.0  0.49576  0.98899  0.19186  1.0000
  N   N9        1.0  0.53130  0.06176  0.33583  1.0000
  C   C79       1.0  0.30556  0.53648  0.34422  1.0000
  C   C80       1.0  0.27182  0.53030  0.34121  1.0000
  C   C81       1.0  0.28245  0.53712  0.26602  1.0000
  C   C82       1.0  0.29911  0.54026  0.26780  1.0000
  H   H61       1.0  0.27859  0.54099  0.21143  1.0000
  H   H62       1.0  0.30676  0.54606  0.21417  1.0000
  C   C83       1.0  0.23041  0.52598  0.27170  1.0000
  C   C84       1.0  0.24462  0.52391  0.27279  1.0000
  H   H63       1.0  0.22283  0.52224  0.21660  1.0000
  H   H64       1.0  0.24682  0.51844  0.21889  1.0000
  N   N10       1.0  0.32196  0.54186  0.34513  1.0000
  C   C85       1.0  0.46393  0.76931  0.34393  1.0000
  C   C86       1.0  0.47016  0.74179  0.34049  1.0000
  C   C87       1.0  0.46340  0.74566  0.26526  1.0000
  C   C88       1.0  0.46027  0.75919  0.26720  1.0000
  H   H65       1.0  0.45956  0.73796  0.21054  1.0000
  H   H66       1.0  0.45450  0.76106  0.21352  1.0000
  C   C89       1.0  0.47432  0.70458  0.27126  1.0000
  C   C90       1.0  0.47644  0.72088  0.27216  1.0000
  H   H67       1.0  0.47805  0.70071  0.21622  1.0000
  H   H68       1.0  0.48194  0.72854  0.21825  1.0000
  N   N11       1.0  0.45854  0.78033  0.34483  1.0000
  C   C91       1.0  0.23095  0.69462  0.34425  1.0000
  C   C92       1.0  0.25844  0.72839  0.34104  1.0000
  C   C93       1.0  0.25466  0.71774  0.26596  1.0000
  C   C94       1.0  0.24116  0.70107  0.26780  1.0000
  H   H69       1.0  0.26242  0.72160  0.21148  1.0000
  H   H70       1.0  0.23936  0.69341  0.21430  1.0000
  C   C95       1.0  0.29554  0.76981  0.27160  1.0000
  C   C96       1.0  0.27926  0.75558  0.27256  1.0000
  H   H71       1.0  0.29940  0.77736  0.21640  1.0000
  H   H72       1.0  0.27162  0.75336  0.21851  1.0000
  N   N12       1.0  0.21992  0.67822  0.34520  1.0000
  C   C97       1.0  0.69626  0.46601  0.33343  1.0000
  C   C98       1.0  0.72980  0.47155  0.33183  1.0000
  C   C99       1.0  0.71954  0.46579  0.25470  1.0000
  C   C100      1.0  0.70304  0.46312  0.25548  1.0000
  H   H73       1.0  0.72357  0.46239  0.19893  1.0000
  H   H74       1.0  0.69565  0.45801  0.20022  1.0000
  C   C101      1.0  0.77135  0.47590  0.26418  1.0000
  C   C102      1.0  0.75721  0.47810  0.26529  1.0000
  H   H75       1.0  0.77919  0.48003  0.21016  1.0000
  H   H76       1.0  0.75538  0.48413  0.21274  1.0000
  N   N13       1.0  0.67992  0.46105  0.33241  1.0000
  C   C103      1.0  0.53452  0.23050  0.33367  1.0000
  C   C104      1.0  0.52899  0.25850  0.33189  1.0000
  C   C105      1.0  0.53477  0.25401  0.25483  1.0000
  C   C106      1.0  0.53746  0.24019  0.25576  1.0000
  H   H77       1.0  0.53817  0.26142  0.19903  1.0000
  H   H78       1.0  0.54255  0.23788  0.20050  1.0000
  C   C107      1.0  0.52462  0.29566  0.26389  1.0000
  C   C108      1.0  0.52240  0.27931  0.26520  1.0000
  H   H79       1.0  0.52043  0.29934  0.20994  1.0000
  H   H80       1.0  0.51638  0.27145  0.21270  1.0000
  N   N14       1.0  0.53948  0.21911  0.33261  1.0000
  C   C109      1.0  0.76997  0.30388  0.33271  1.0000
  C   C110      1.0  0.74194  0.27036  0.33149  1.0000
  C   C111      1.0  0.74655  0.28052  0.25396  1.0000
  C   C112      1.0  0.76039  0.29701  0.25456  1.0000
  H   H81       1.0  0.73919  0.27644  0.19798  1.0000
  H   H82       1.0  0.76277  0.30435  0.19896  1.0000
  C   C113      1.0  0.70467  0.22882  0.26424  1.0000
  C   C114      1.0  0.72105  0.24291  0.26537  1.0000
  H   H83       1.0  0.70098  0.22089  0.21056  1.0000
  H   H84       1.0  0.72893  0.24465  0.21308  1.0000
  N   N15       1.0  0.78134  0.32022  0.33163  1.0000
  C   C115      1.0  0.17900  0.61609  0.35409  1.0000
  C   C116      1.0  0.17646  0.56222  0.32044  1.0000
  C   C117      1.0  0.11451  0.54789  0.31452  1.0000
  C   C118      1.0  0.09694  0.54030  0.30430  1.0000
  C   C119      1.0  0.19818  0.65172  0.38079  1.0000
  C   C120      1.0  0.20617  0.64196  0.37834  1.0000
  C   C121      1.0  0.19671  0.62443  0.36528  1.0000
  C   C122      1.0  0.19413  0.57016  0.33235  1.0000
  C   C123      1.0  0.20269  0.56109  0.32546  1.0000
  C   C124      1.0  0.19392  0.54363  0.30667  1.0000
  H   H85       1.0  0.20301  0.61786  0.36433  1.0000
  H   H86       1.0  0.21893  0.64749  0.38685  1.0000
  H   H87       1.0  0.20112  0.58278  0.34541  1.0000
  H   H88       1.0  0.21550  0.56751  0.33300  1.0000
  C   C125      1.0  0.16799  0.57168  0.32526  1.0000
  N   N16       1.0  0.17677  0.58866  0.33750  1.0000
  C   C126      1.0  0.16940  0.59832  0.34106  1.0000
  N   N17       1.0  0.15099  0.56436  0.31624  1.0000
  H   H89       1.0  0.11947  0.54028  0.32684  1.0000
  C   C127      1.0  0.20245  0.53478  0.29639  1.0000
  H   H90       1.0  0.08975  0.52746  0.30830  1.0000
  C   C128      1.0  0.20728  0.66886  0.39522  1.0000
  H   H91       1.0  0.20374  0.67380  0.44376  1.0000
  C   C129      1.0  0.38409  0.56305  0.35400  1.0000
  C   C130      1.0  0.43797  0.61439  0.32036  1.0000
  C   C131      1.0  0.45227  0.56674  0.31444  1.0000
  C   C132      1.0  0.45985  0.55676  0.30423  1.0000
  C   C133      1.0  0.34845  0.54657  0.38056  1.0000
  C   C134      1.0  0.35820  0.56432  0.37780  1.0000
  C   C135      1.0  0.37572  0.57240  0.36480  1.0000
  C   C136      1.0  0.43003  0.62413  0.33208  1.0000
  C   C137      1.0  0.43911  0.64176  0.32522  1.0000
  C   C138      1.0  0.45658  0.65044  0.30666  1.0000
  H   H92       1.0  0.38229  0.58528  0.36358  1.0000
  H   H93       1.0  0.35265  0.57154  0.38599  1.0000
  H   H94       1.0  0.41741  0.61851  0.34501  1.0000
  H   H95       1.0  0.43270  0.64816  0.33267  1.0000
  C   C139      1.0  0.42849  0.59645  0.32517  1.0000
  N   N18       1.0  0.41152  0.58827  0.33743  1.0000
  C   C140      1.0  0.40186  0.57123  0.34099  1.0000
  N   N19       1.0  0.43581  0.58678  0.31614  1.0000
  H   H96       1.0  0.45989  0.57932  0.32682  1.0000
  C   C141      1.0  0.46546  0.66782  0.29645  1.0000
  H   H97       1.0  0.47269  0.56239  0.30834  1.0000
  C   C142      1.0  0.33130  0.53852  0.39489  1.0000
  H   H98       1.0  0.32634  0.52997  0.44312  1.0000
  C   C143      1.0  0.43692  0.82089  0.35385  1.0000
  C   C144      1.0  0.38572  0.82365  0.32036  1.0000
  C   C145      1.0  0.43349  0.88553  0.31442  1.0000
  C   C146      1.0  0.44350  0.90310  0.30432  1.0000
  C   C147      1.0  0.45322  0.80162  0.38170  1.0000
  C   C148      1.0  0.43548  0.79372  0.38068  1.0000
  C   C149      1.0  0.42749  0.80323  0.36701  1.0000
  C   C150      1.0  0.37596  0.80599  0.33240  1.0000
  C   C151      1.0  0.35833  0.79746  0.32563  1.0000
  C   C152      1.0  0.34967  0.80626  0.30678  1.0000
  H   H99       1.0  0.41461  0.79701  0.36732  1.0000
  H   H100      1.0  0.42823  0.78101  0.39075  1.0000
  H   H101      1.0  0.38155  0.79897  0.34551  1.0000
  H   H102      1.0  0.35191  0.78465  0.33323  1.0000
  C   C153      1.0  0.40366  0.83207  0.32503  1.0000
  N   N20       1.0  0.41180  0.82324  0.33724  1.0000
  C   C154      1.0  0.42882  0.83055  0.34066  1.0000
  N   N21       1.0  0.41338  0.84906  0.31598  1.0000
  H   H103      1.0  0.42092  0.88060  0.32674  1.0000
  C   C155      1.0  0.33230  0.79777  0.29653  1.0000
  H   H104      1.0  0.43789  0.91032  0.30844  1.0000
  C   C156      1.0  0.46118  0.79249  0.39715  1.0000
  H   H105      1.0  0.46900  0.79558  0.44863  1.0000
  C   C157      1.0  0.81859  0.38315  0.34804  1.0000
  C   C158      1.0  0.82373  0.43789  0.31128  1.0000
  C   C159      1.0  0.88510  0.45049  0.33224  1.0000
  C   C160      1.0  0.90269  0.45766  0.33903  1.0000
  C   C161      1.0  0.79755  0.34781  0.37666  1.0000
  C   C162      1.0  0.79076  0.35861  0.37917  1.0000
  C   C163      1.0  0.80110  0.37598  0.36440  1.0000
  C   C164      1.0  0.80593  0.43010  0.31248  1.0000
  C   C165      1.0  0.79780  0.43957  0.30515  1.0000
  C   C166      1.0  0.80712  0.45729  0.29662  1.0000
  H   H106      1.0  0.79568  0.38336  0.36793  1.0000
  H   H107      1.0  0.77824  0.35397  0.39242  1.0000
  H   H108      1.0  0.79852  0.41733  0.31868  1.0000
  H   H109      1.0  0.78490  0.43328  0.30556  1.0000
  C   C167      1.0  0.83176  0.42804  0.31944  1.0000
  N   N22       1.0  0.82238  0.41104  0.32792  1.0000
  C   C168      1.0  0.82908  0.40087  0.33681  1.0000
  N   N23       1.0  0.84880  0.43492  0.32088  1.0000
  H   H110      1.0  0.88033  0.45843  0.32760  1.0000
  C   C169      1.0  0.79901  0.46656  0.28818  1.0000
  H   H111      1.0  0.91000  0.47050  0.33923  1.0000
  C   C170      1.0  0.78734  0.33100  0.39543  1.0000
  H   H112      1.0  0.78302  0.32778  0.45731  1.0000
  C   C171      1.0  0.61709  0.43585  0.34764  1.0000
  C   C172      1.0  0.56244  0.38604  0.31092  1.0000
  C   C173      1.0  0.54959  0.43466  0.33240  1.0000
  C   C174      1.0  0.54238  0.44504  0.33929  1.0000
  C   C175      1.0  0.65244  0.45046  0.37666  1.0000
  C   C176      1.0  0.64184  0.43282  0.37706  1.0000
  C   C177      1.0  0.62446  0.42566  0.36218  1.0000
  C   C178      1.0  0.57028  0.37607  0.31198  1.0000
  C   C179      1.0  0.56085  0.35847  0.30460  1.0000
  C   C180      1.0  0.54313  0.35003  0.29617  1.0000
  H   H113      1.0  0.61721  0.41282  0.36424  1.0000
  H   H114      1.0  0.64663  0.42503  0.38913  1.0000
  H   H115      1.0  0.58305  0.38148  0.31810  1.0000
  H   H116      1.0  0.56717  0.35189  0.30491  1.0000
  C   C181      1.0  0.57224  0.40392  0.31912  1.0000
  N   N24       1.0  0.58925  0.41160  0.32753  1.0000
  C   C182      1.0  0.59935  0.42849  0.33644  1.0000
  N   N25       1.0  0.56528  0.41401  0.32069  1.0000
  H   H117      1.0  0.54167  0.42193  0.32788  1.0000
  C   C183      1.0  0.53389  0.33264  0.28771  1.0000
  H   H118      1.0  0.52953  0.43947  0.33967  1.0000
  C   C184      1.0  0.66925  0.45725  0.39609  1.0000
  H   H119      1.0  0.67250  0.45704  0.45906  1.0000
  C   C185      1.0  0.56434  0.18119  0.34745  1.0000
  C   C186      1.0  0.61424  0.17643  0.31122  1.0000
  C   C187      1.0  0.56562  0.11494  0.33259  1.0000
  C   C188      1.0  0.55524  0.09735  0.33943  1.0000
  C   C189      1.0  0.54961  0.20183  0.37636  1.0000
  C   C190      1.0  0.56726  0.20897  0.37552  1.0000
  C   C191      1.0  0.57448  0.19880  0.36075  1.0000
  C   C192      1.0  0.62421  0.19423  0.31235  1.0000
  C   C193      1.0  0.64181  0.20241  0.30502  1.0000
  C   C194      1.0  0.65025  0.19312  0.29657  1.0000
  H   H120      1.0  0.58733  0.20445  0.36194  1.0000
  H   H121      1.0  0.57501  0.22158  0.38676  1.0000
  H   H122      1.0  0.61881  0.20161  0.31850  1.0000
  H   H123      1.0  0.64840  0.21530  0.30541  1.0000
  C   C195      1.0  0.59636  0.16834  0.31937  1.0000
  N   N26       1.0  0.58866  0.17766  0.32762  1.0000
  C   C196      1.0  0.57176  0.17086  0.33645  1.0000
  N   N27       1.0  0.58628  0.15130  0.32096  1.0000
  H   H124      1.0  0.57835  0.11975  0.32810  1.0000
  C   C197      1.0  0.66765  0.20126  0.28815  1.0000
  H   H125      1.0  0.56080  0.09006  0.33981  1.0000
  C   C198      1.0  0.54272  0.21175  0.39599  1.0000
  H   H126      1.0  0.54240  0.21469  0.45941  1.0000
  C   C199      1.0  0.04490  0.52362  0.32613  1.0000
  C   C200      1.0  0.00896  0.50572  0.33319  1.0000
  C   C201      1.0  0.01872  0.51033  0.41220  1.0000
  C   C202      1.0  0.03643  0.51906  0.40869  1.0000
  H   H127      1.0  0.01303  0.50753  0.47341  1.0000
  H   H128      1.0  0.04311  0.52225  0.46706  1.0000
  C   C203      1.0  0.96459  0.47336  0.39584  1.0000
  C   C204      1.0  0.98228  0.48268  0.39448  1.0000
  H   H129      1.0  0.95880  0.46342  0.43882  1.0000
  H   H130      1.0  0.98876  0.47894  0.43515  1.0000
  N   N28       1.0  0.06163  0.53168  0.32686  1.0000
  C   C205      1.0  0.47647  0.52135  0.32629  1.0000
  C   C206      1.0  0.49433  0.50327  0.33337  1.0000
  C   C207      1.0  0.48967  0.50838  0.41239  1.0000
  C   C208      1.0  0.48096  0.51737  0.40886  1.0000
  H   H131      1.0  0.49241  0.50543  0.47359  1.0000
  H   H132      1.0  0.47772  0.52082  0.46723  1.0000
  C   C209      1.0  0.52658  0.49115  0.39637  1.0000
  C   C210      1.0  0.51728  0.49954  0.39501  1.0000
  H   H133      1.0  0.53649  0.49526  0.43954  1.0000
  H   H134      1.0  0.52101  0.50974  0.43583  1.0000
  N   N29       1.0  0.46841  0.53002  0.32703  1.0000
  C   C211      1.0  0.47892  0.95511  0.32626  1.0000
  C   C212      1.0  0.49698  0.99105  0.33331  1.0000
  C   C213      1.0  0.49184  0.98128  0.41233  1.0000
  C   C214      1.0  0.48286  0.96358  0.40882  1.0000
  H   H135      1.0  0.49477  0.98698  0.47353  1.0000
  H   H136      1.0  0.47938  0.95690  0.46719  1.0000
  C   C215      1.0  0.50909  0.03543  0.39624  1.0000
  C   C216      1.0  0.50069  0.01773  0.39486  1.0000
  H   H137      1.0  0.50497  0.04123  0.43936  1.0000
  H   H138      1.0  0.49048  0.01127  0.43561  1.0000
  N   N30       1.0  0.47024  0.93838  0.32700  1.0000
  C   C217      1.0  0.29480  0.52904  0.41825  1.0000
  C   C218      1.0  0.27818  0.52603  0.41671  1.0000
  C   C219      1.0  0.25616  0.53003  0.34475  1.0000
  C   C220      1.0  0.25277  0.53789  0.41667  1.0000
  C   C221      1.0  0.23868  0.54010  0.41523  1.0000
  C   C222      1.0  0.22743  0.53431  0.34261  1.0000
  H   H139      1.0  0.26114  0.54313  0.46817  1.0000
  H   H140      1.0  0.23713  0.54668  0.46598  1.0000
  H   H141      1.0  0.29922  0.52667  0.47578  1.0000
  H   H142      1.0  0.27096  0.52130  0.47282  1.0000
  N   N31       1.0  0.21605  0.53916  0.34027  1.0000
  C   C223      1.0  0.47140  0.76598  0.41783  1.0000
  C   C224      1.0  0.47444  0.75240  0.41605  1.0000
  C   C225      1.0  0.47037  0.72636  0.34409  1.0000
  C   C226      1.0  0.46247  0.71513  0.41603  1.0000
  C   C227      1.0  0.46020  0.69880  0.41473  1.0000
  C   C228      1.0  0.46600  0.69331  0.34231  1.0000
  H   H143      1.0  0.45720  0.71827  0.46735  1.0000
  H   H144      1.0  0.45357  0.69068  0.46542  1.0000
  H   H145      1.0  0.47379  0.77275  0.47544  1.0000
  H   H146      1.0  0.47914  0.74987  0.47217  1.0000
  N   N32       1.0  0.46106  0.67705  0.34008  1.0000
  C   C229      1.0  0.23421  0.70540  0.41811  1.0000
  C   C230      1.0  0.24778  0.72204  0.41645  1.0000
  C   C231      1.0  0.27382  0.74407  0.34461  1.0000
  C   C232      1.0  0.28504  0.74749  0.41673  1.0000
  C   C233      1.0  0.30134  0.76158  0.41538  1.0000
  C   C234      1.0  0.30682  0.77281  0.34269  1.0000
  H   H147      1.0  0.28192  0.73911  0.46818  1.0000
  H   H148      1.0  0.30946  0.76312  0.46613  1.0000
  H   H149      1.0  0.22740  0.70100  0.47559  1.0000
  H   H150      1.0  0.25026  0.72928  0.47249  1.0000
  N   N33       1.0  0.32306  0.78417  0.34037  1.0000
  C   C235      1.0  0.70677  0.47266  0.40913  1.0000
  C   C236      1.0  0.72326  0.47533  0.40833  1.0000
  C   C237      1.0  0.74530  0.47146  0.33543  1.0000
  C   C238      1.0  0.74821  0.46288  0.40546  1.0000
  C   C239      1.0  0.76221  0.46053  0.40397  1.0000
  C   C240      1.0  0.77384  0.46687  0.33311  1.0000
  H   H151      1.0  0.73958  0.45727  0.45554  1.0000
  H   H152      1.0  0.76341  0.45343  0.45305  1.0000
  H   H153      1.0  0.70230  0.47497  0.46669  1.0000
  H   H154      1.0  0.73026  0.47945  0.46553  1.0000
  N   N34       1.0  0.78512  0.46188  0.32979  1.0000
  C   C241      1.0  0.52785  0.23435  0.40927  1.0000
  C   C242      1.0  0.52521  0.24819  0.40843  1.0000
  C   C243      1.0  0.52906  0.27407  0.33539  1.0000
  C   C244      1.0  0.53764  0.28558  0.40536  1.0000
  C   C245      1.0  0.54000  0.30195  0.40366  1.0000
  C   C246      1.0  0.53363  0.30720  0.33280  1.0000
  H   H155      1.0  0.54325  0.28257  0.45545  1.0000
  H   H156      1.0  0.54707  0.31024  0.45281  1.0000
  H   H157      1.0  0.52553  0.22759  0.46687  1.0000
  H   H158      1.0  0.52104  0.25105  0.46553  1.0000
  N   N35       1.0  0.53860  0.32346  0.32939  1.0000
  C   C247      1.0  0.76604  0.29345  0.40876  1.0000
  C   C248      1.0  0.75219  0.27696  0.40818  1.0000
  C   C249      1.0  0.72633  0.25489  0.33520  1.0000
  C   C250      1.0  0.71480  0.25208  0.40491  1.0000
  C   C251      1.0  0.69841  0.23813  0.40331  1.0000
  C   C252      1.0  0.69313  0.22640  0.33295  1.0000
  H   H159      1.0  0.71781  0.26079  0.45455  1.0000
  H   H160      1.0  0.69010  0.23702  0.45215  1.0000
  H   H161      1.0  0.77277  0.29798  0.46643  1.0000
  H   H162      1.0  0.74926  0.27003  0.46563  1.0000
  N   N36       1.0  0.67685  0.21518  0.32958  1.0000
