data_image0
_chemical_formula_structural       C2HC3HC2HC2HC2H2C2H2CH2C3HC2HC2HC2HC2HC5H3C8H4C5H2C8H4C8H4C8H4C4H2C4H2C4H2C4H2C4H2C2HC2H2C2HC2HC2H4C3HC2H4C2HC2HC2H4C2HC2HC2H4C2HC2HC2H4
_chemical_formula_sum              "C120 H78"
_cell_length_a       31.9135
_cell_length_b       31.9136
_cell_length_c       14.8151
_cell_angle_alpha    90
_cell_angle_beta     90
_cell_angle_gamma    120

_space_group_name_H-M_alt    "P 1"
_space_group_IT_number       1

loop_
  _space_group_symop_operation_xyz
  'x, y, z'

loop_
  _atom_site_type_symbol
  _atom_site_label
  _atom_site_symmetry_multiplicity
  _atom_site_fract_x
  _atom_site_fract_y
  _atom_site_fract_z
  _atom_site_occupancy
  C   C1        1.0  0.06414  0.57121  0.34600  1.0000
  C   C2        1.0  0.11538  0.59719  0.34695  1.0000
  H   H1        1.0  0.04785  0.59152  0.35186  1.0000
  C   C3        1.0  0.03607  0.51951  0.33989  1.0000
  C   C4        1.0  0.11505  0.52045  0.33611  1.0000
  C   C5        1.0  0.06385  0.49557  0.33430  1.0000
  H   H2        1.0  0.04736  0.45898  0.32770  1.0000
  C   C6        1.0  0.16654  0.49694  0.25300  1.0000
  C   C7        1.0  0.14320  0.49714  0.33371  1.0000
  H   H3        1.0  0.15775  0.50701  0.19350  1.0000
  C   C8        1.0  0.14384  0.64864  0.34987  1.0000
  C   C9        1.0  0.15446  0.67565  0.26932  1.0000
  H   H4        1.0  0.13623  0.65943  0.21112  1.0000
  C   C10       1.0  0.14017  0.57119  0.34231  1.0000
  C   C11       1.0  0.15979  0.48781  0.41543  1.0000
  H   H5        1.0  0.14500  0.49042  0.47507  1.0000
  H   H6        1.0  0.16586  0.65206  0.48524  1.0000
  C   C12       1.0  0.20566  0.48821  0.25404  1.0000
  C   C13       1.0  0.19348  0.72352  0.26518  1.0000
  H   H7        1.0  0.20057  0.74079  0.20435  1.0000
  H   H8        1.0  0.17733  0.58961  0.34286  1.0000
  C   C14       1.0  0.19920  0.47912  0.41705  1.0000
  H   H9        1.0  0.20589  0.43382  0.51190  1.0000
  H   H10       1.0  0.20382  0.48292  0.56213  1.0000
  C   C15       1.0  0.17191  0.67169  0.42712  1.0000
  C   C16       1.0  0.90336  0.41528  0.34690  1.0000
  C   C17       1.0  0.95459  0.44127  0.34598  1.0000
  H   H11       1.0  0.97089  0.42096  0.35185  1.0000
  C   C18       1.0  0.60032  0.49117  0.34695  1.0000
  C   C19       1.0  0.57433  0.51642  0.34602  1.0000
  H   H12       1.0  0.59464  0.55302  0.35188  1.0000
  C   C20       1.0  0.44439  0.49603  0.34602  1.0000
  C   C21       1.0  0.41841  0.52128  0.34696  1.0000
  H   H13       1.0  0.42408  0.45943  0.35190  1.0000
  C   C22       1.0  0.52440  0.11226  0.34688  1.0000
  C   C23       1.0  0.49916  0.06103  0.34600  1.0000
  H   H14       1.0  0.46255  0.04473  0.35180  1.0000
  C   C24       1.0  0.51956  0.95149  0.34603  1.0000
  C   C25       1.0  0.49432  0.90026  0.34688  1.0000
  H   H15       1.0  0.55617  0.96780  0.35188  1.0000
  C   C26       1.0  0.36695  0.49830  0.34987  1.0000
  C   C27       1.0  0.33996  0.48195  0.26931  1.0000
  C   C28       1.0  0.29208  0.47310  0.26519  1.0000
  C   C29       1.0  0.26939  0.48062  0.34096  1.0000
  C   C30       1.0  0.22361  0.47992  0.33583  1.0000
  H   H16       1.0  0.22344  0.49244  0.19451  1.0000
  H   H17       1.0  0.35618  0.47996  0.21110  1.0000
  H   H18       1.0  0.27481  0.46294  0.20435  1.0000
  C   C31       1.0  0.51733  0.87183  0.34983  1.0000
  C   C32       1.0  0.53368  0.86113  0.26931  1.0000
  C   C33       1.0  0.54255  0.82212  0.26518  1.0000
  C   C34       1.0  0.53501  0.79190  0.34094  1.0000
  C   C35       1.0  0.53570  0.74682  0.33583  1.0000
  C   C36       1.0  0.52743  0.72059  0.25405  1.0000
  C   C37       1.0  0.51868  0.67273  0.25303  1.0000
  C   C38       1.0  0.51846  0.64913  0.33369  1.0000
  H   H19       1.0  0.52322  0.73415  0.19450  1.0000
  H   H20       1.0  0.50863  0.65389  0.19351  1.0000
  H   H21       1.0  0.53568  0.87934  0.21109  1.0000
  H   H22       1.0  0.55271  0.81501  0.20434  1.0000
  C   C39       1.0  0.22372  0.74621  0.34094  1.0000
  C   C40       1.0  0.26880  0.79199  0.33578  1.0000
  C   C41       1.0  0.29501  0.80995  0.25398  1.0000
  C   C42       1.0  0.34286  0.84907  0.25292  1.0000
  C   C43       1.0  0.36646  0.87243  0.33358  1.0000
  H   H23       1.0  0.28144  0.79217  0.19444  1.0000
  H   H24       1.0  0.36170  0.85785  0.19340  1.0000
  C   C44       1.0  0.65177  0.51415  0.34987  1.0000
  C   C45       1.0  0.67877  0.53051  0.26931  1.0000
  C   C46       1.0  0.72664  0.53937  0.26519  1.0000
  C   C47       1.0  0.74934  0.53184  0.34096  1.0000
  C   C48       1.0  0.79512  0.53254  0.33583  1.0000
  C   C49       1.0  0.81307  0.52426  0.25404  1.0000
  C   C50       1.0  0.85220  0.51554  0.25298  1.0000
  C   C51       1.0  0.87553  0.51533  0.33369  1.0000
  H   H25       1.0  0.79529  0.52004  0.19450  1.0000
  H   H26       1.0  0.86099  0.50548  0.19348  1.0000
  H   H27       1.0  0.66254  0.53251  0.21110  1.0000
  H   H28       1.0  0.74391  0.54953  0.20435  1.0000
  C   C52       1.0  0.50140  0.14070  0.34977  1.0000
  C   C53       1.0  0.48501  0.15135  0.26927  1.0000
  C   C54       1.0  0.47614  0.19036  0.26516  1.0000
  C   C55       1.0  0.48369  0.22059  0.34094  1.0000
  C   C56       1.0  0.48299  0.26567  0.33582  1.0000
  C   C57       1.0  0.49126  0.29190  0.25403  1.0000
  C   C58       1.0  0.50001  0.33976  0.25298  1.0000
  C   C59       1.0  0.50025  0.36331  0.33371  1.0000
  H   H29       1.0  0.49546  0.27833  0.19448  1.0000
  H   H30       1.0  0.51007  0.35861  0.19348  1.0000
  H   H31       1.0  0.48299  0.13314  0.21105  1.0000
  H   H32       1.0  0.46595  0.19746  0.20434  1.0000
  C   C60       1.0  0.87489  0.36383  0.34983  1.0000
  C   C61       1.0  0.86425  0.33683  0.26929  1.0000
  C   C62       1.0  0.82522  0.28895  0.26517  1.0000
  C   C63       1.0  0.79500  0.26627  0.34094  1.0000
  C   C64       1.0  0.74992  0.22049  0.33582  1.0000
  C   C65       1.0  0.72368  0.20254  0.25403  1.0000
  C   C66       1.0  0.67582  0.16343  0.25298  1.0000
  C   C67       1.0  0.65228  0.14010  0.33369  1.0000
  H   H33       1.0  0.73724  0.22032  0.19449  1.0000
  H   H34       1.0  0.65697  0.15464  0.19348  1.0000
  H   H35       1.0  0.88246  0.35304  0.21107  1.0000
  H   H36       1.0  0.81811  0.27168  0.20434  1.0000
  C   C68       1.0  0.98266  0.49296  0.33988  1.0000
  C   C69       1.0  0.95488  0.51690  0.33427  1.0000
  C   C70       1.0  0.90368  0.49202  0.33608  1.0000
  C   C71       1.0  0.87856  0.44128  0.34227  1.0000
  H   H37       1.0  0.97137  0.55349  0.32771  1.0000
  H   H38       1.0  0.84140  0.42286  0.34282  1.0000
  C   C72       1.0  0.52264  0.49280  0.33990  1.0000
  C   C73       1.0  0.49869  0.44108  0.33431  1.0000
  C   C74       1.0  0.52357  0.41476  0.33610  1.0000
  C   C75       1.0  0.57431  0.44037  0.34230  1.0000
  H   H39       1.0  0.46211  0.42099  0.32769  1.0000
  H   H40       1.0  0.59273  0.42163  0.34285  1.0000
  C   C76       1.0  0.49608  0.51965  0.33990  1.0000
  C   C77       1.0  0.44441  0.57208  0.34229  1.0000
  C   C78       1.0  0.49515  0.59769  0.33608  1.0000
  C   C79       1.0  0.52003  0.57137  0.33428  1.0000
  H   H41       1.0  0.42599  0.59082  0.34285  1.0000
  H   H42       1.0  0.55661  0.59147  0.32771  1.0000
  C   C80       1.0  0.52279  0.03296  0.33988  1.0000
  C   C81       1.0  0.57451  0.06075  0.33429  1.0000
  C   C82       1.0  0.60083  0.11195  0.33610  1.0000
  C   C83       1.0  0.57520  0.13707  0.34224  1.0000
  H   H43       1.0  0.59461  0.04426  0.32768  1.0000
  H   H44       1.0  0.59393  0.17423  0.34278  1.0000
  C   C84       1.0  0.49594  0.97956  0.33986  1.0000
  C   C85       1.0  0.44353  0.87546  0.34220  1.0000
  C   C86       1.0  0.41790  0.90057  0.33603  1.0000
  C   C87       1.0  0.44422  0.95177  0.33422  1.0000
  H   H45       1.0  0.42480  0.83830  0.34275  1.0000
  H   H46       1.0  0.42412  0.96826  0.32761  1.0000
  C   C88       1.0  0.29537  0.49319  0.42424  1.0000
  C   C89       1.0  0.34390  0.50329  0.42714  1.0000
  H   H47       1.0  0.36353  0.51685  0.48527  1.0000
  C   C90       1.0  0.21787  0.47228  0.50455  1.0000
  C   C91       1.0  0.27388  0.50161  0.50672  1.0000
  H   H48       1.0  0.28597  0.49092  0.56711  1.0000
  H   H49       1.0  0.28620  0.54024  0.51185  1.0000
  C   C92       1.0  0.52242  0.80531  0.42420  1.0000
  C   C93       1.0  0.51231  0.84373  0.42706  1.0000
  H   H50       1.0  0.49874  0.84978  0.48519  1.0000
  C   C94       1.0  0.52777  0.67510  0.41539  1.0000
  C   C95       1.0  0.53648  0.72321  0.41703  1.0000
  H   H51       1.0  0.52515  0.65770  0.47503  1.0000
  C   C96       1.0  0.54329  0.74869  0.50455  1.0000
  C   C97       1.0  0.51398  0.77540  0.50669  1.0000
  H   H52       1.0  0.58176  0.77518  0.51194  1.0000
  H   H53       1.0  0.53263  0.72399  0.56211  1.0000
  H   H54       1.0  0.52466  0.79817  0.56707  1.0000
  H   H55       1.0  0.47535  0.74909  0.51179  1.0000
  C   C98       1.0  0.21033  0.72023  0.42420  1.0000
  C   C99       1.0  0.34053  0.85579  0.41531  1.0000
  C   C100      1.0  0.29242  0.81639  0.41698  1.0000
  H   H56       1.0  0.35794  0.87058  0.47495  1.0000
  C   C101      1.0  0.26695  0.79771  0.50450  1.0000
  C   C102      1.0  0.24026  0.74170  0.50666  1.0000
  H   H57       1.0  0.24047  0.80970  0.51192  1.0000
  H   H58       1.0  0.29166  0.81176  0.56205  1.0000
  H   H59       1.0  0.21751  0.72962  0.56708  1.0000
  H   H60       1.0  0.26658  0.72939  0.51174  1.0000
  C   C103      1.0  0.72335  0.51926  0.42423  1.0000
  C   C104      1.0  0.67482  0.50915  0.42713  1.0000
  H   H61       1.0  0.65519  0.49559  0.48527  1.0000
  C   C105      1.0  0.85893  0.52465  0.41542  1.0000
  C   C106      1.0  0.81952  0.53335  0.41704  1.0000
  H   H62       1.0  0.87372  0.52204  0.47505  1.0000
  C   C107      1.0  0.80085  0.54017  0.50455  1.0000
  C   C108      1.0  0.74484  0.51084  0.50671  1.0000
  H   H63       1.0  0.81282  0.57864  0.51190  1.0000
  H   H64       1.0  0.81491  0.52953  0.56212  1.0000
  H   H65       1.0  0.73275  0.52152  0.56710  1.0000
  H   H66       1.0  0.73253  0.47221  0.51183  1.0000
  C   C109      1.0  0.49630  0.20719  0.42418  1.0000
  C   C110      1.0  0.50642  0.16878  0.42703  1.0000
  H   H67       1.0  0.52000  0.16272  0.48515  1.0000
  C   C111      1.0  0.49094  0.33738  0.41544  1.0000
  C   C112      1.0  0.48222  0.28928  0.41705  1.0000
  H   H68       1.0  0.49357  0.35479  0.47508  1.0000
  C   C113      1.0  0.47542  0.26378  0.50455  1.0000
  C   C114      1.0  0.50474  0.23710  0.50666  1.0000
  H   H69       1.0  0.43695  0.23729  0.51194  1.0000
  H   H70       1.0  0.48607  0.28848  0.56212  1.0000
  H   H71       1.0  0.49408  0.21433  0.56706  1.0000
  H   H72       1.0  0.54338  0.26342  0.51176  1.0000
  C   C115      1.0  0.80841  0.29225  0.42422  1.0000
  C   C116      1.0  0.84684  0.34079  0.42710  1.0000
  H   H73       1.0  0.85291  0.36042  0.48523  1.0000
  C   C117      1.0  0.67821  0.15670  0.41542  1.0000
  C   C118      1.0  0.72632  0.19610  0.41704  1.0000
  H   H74       1.0  0.66080  0.14191  0.47506  1.0000
  C   C119      1.0  0.75181  0.21477  0.50454  1.0000
  C   C120      1.0  0.77851  0.27078  0.50670  1.0000
  H   H75       1.0  0.77830  0.20278  0.51190  1.0000
  H   H76       1.0  0.72712  0.20072  0.56211  1.0000
  H   H77       1.0  0.80128  0.28286  0.56708  1.0000
  H   H78       1.0  0.75219  0.28310  0.51181  1.0000
