data_image0
_chemical_formula_structural       C4H2C2NC2NC4NC3NC35H23C21H18C16H16C3HOHC2HOHC4HOHC3HOHC2HOHC4HOHC18H17C3NC3NC2NC5NC34H24C3NC3NC5NC5NC36H26C3OH2C4OH2C2OH2C3OH2C4OH2C2OH2
_chemical_formula_sum              "C240 H150 N12 O12"
_cell_length_a       58.6736
_cell_length_b       58.6736
_cell_length_c       14.9704
_cell_angle_alpha    89.7736
_cell_angle_beta     90.2264
_cell_angle_gamma    120

_space_group_name_H-M_alt    "P 1"
_space_group_IT_number       1

loop_
  _space_group_symop_operation_xyz
  'x, y, z'

loop_
  _atom_site_type_symbol
  _atom_site_label
  _atom_site_symmetry_multiplicity
  _atom_site_fract_x
  _atom_site_fract_y
  _atom_site_fract_z
  _atom_site_occupancy
  C   C1        1.0  0.02009  0.48593  0.33447  1.0000
  C   C2        1.0  0.01147  0.50424  0.33451  1.0000
  C   C3        1.0  0.01146  0.60251  0.33283  1.0000
  C   C4        1.0  0.02008  0.62944  0.33290  1.0000
  H   H1        1.0  0.00873  0.46587  0.33495  1.0000
  H   H2        1.0  0.00873  0.63814  0.33238  1.0000
  C   C5        1.0  0.04726  0.49952  0.33305  1.0000
  C   C6        1.0  0.05587  0.52644  0.33295  1.0000
  N   N1        1.0  0.03367  0.52815  0.33370  1.0000
  C   C7        1.0  0.98467  0.49787  0.33539  1.0000
  C   C8        1.0  0.97600  0.51655  0.33459  1.0000
  N   N2        1.0  0.99087  0.54308  0.33359  1.0000
  C   C9        1.0  0.97599  0.55474  0.33274  1.0000
  C   C10       1.0  0.94984  0.53432  0.33327  1.0000
  C   C11       1.0  0.94984  0.51081  0.33428  1.0000
  C   C12       1.0  0.98466  0.58209  0.33197  1.0000
  N   N3        1.0  0.03367  0.60079  0.33364  1.0000
  C   C13       1.0  0.05587  0.62471  0.33449  1.0000
  C   C14       1.0  0.04725  0.64302  0.33439  1.0000
  C   C15       1.0  0.08267  0.63109  0.33545  1.0000
  N   N4        1.0  0.07646  0.58587  0.33376  1.0000
  C   C16       1.0  0.09134  0.57422  0.33288  1.0000
  C   C17       1.0  0.11750  0.59464  0.33334  1.0000
  C   C18       1.0  0.11750  0.61815  0.33436  1.0000
  C   C19       1.0  0.08267  0.54687  0.33211  1.0000
  C   C20       1.0  0.10243  0.53953  0.33025  1.0000
  C   C21       1.0  0.11423  0.53914  0.24869  1.0000
  C   C22       1.0  0.13503  0.53373  0.24745  1.0000
  C   C23       1.0  0.14454  0.52842  0.32742  1.0000
  C   C24       1.0  0.16667  0.52447  0.32664  1.0000
  C   C25       1.0  0.21186  0.53848  0.27939  1.0000
  C   C26       1.0  0.18959  0.54157  0.27773  1.0000
  C   C27       1.0  0.10241  0.65820  0.33757  1.0000
  C   C28       1.0  0.11122  0.67297  0.25780  1.0000
  C   C29       1.0  0.13170  0.69936  0.25972  1.0000
  C   C30       1.0  0.14407  0.71162  0.34111  1.0000
  C   C31       1.0  0.16588  0.73788  0.34230  1.0000
  C   C32       1.0  0.16543  0.75834  0.29323  1.0000
  C   C33       1.0  0.18734  0.78399  0.29250  1.0000
  C   C34       1.0  0.21054  0.79004  0.34026  1.0000
  C   C35       1.0  0.96491  0.58946  0.33018  1.0000
  C   C36       1.0  0.92326  0.60124  0.32737  1.0000
  C   C37       1.0  0.93235  0.59561  0.24748  1.0000
  C   C38       1.0  0.95293  0.58987  0.24870  1.0000
  C   C39       1.0  0.90146  0.60571  0.32658  1.0000
  C   C40       1.0  0.87827  0.58887  0.27833  1.0000
  C   C41       1.0  0.85635  0.59253  0.27983  1.0000
  C   C42       1.0  0.85681  0.61322  0.32953  1.0000
  C   C43       1.0  0.96491  0.47076  0.33756  1.0000
  C   C44       1.0  0.95572  0.45618  0.25771  1.0000
  C   C45       1.0  0.93503  0.42989  0.25963  1.0000
  C   C46       1.0  0.92281  0.41755  0.34111  1.0000
  C   C47       1.0  0.90068  0.39146  0.34227  1.0000
  C   C48       1.0  0.85532  0.33975  0.34001  1.0000
  C   C49       1.0  0.87825  0.34547  0.29163  1.0000
  C   C50       1.0  0.90050  0.37091  0.29247  1.0000
  H   H3        1.0  0.87898  0.33109  0.25544  1.0000
  H   H4        1.0  0.91673  0.37423  0.25682  1.0000
  H   H5        1.0  0.92827  0.42017  0.20025  1.0000
  H   H6        1.0  0.96363  0.46479  0.19751  1.0000
  H   H7        1.0  0.05861  0.49082  0.33257  1.0000
  H   H8        1.0  0.03367  0.54451  0.33369  1.0000
  H   H9        1.0  0.03367  0.58443  0.33368  1.0000
  H   H10       1.0  0.93328  0.49265  0.33461  1.0000
  H   H11       1.0  0.93328  0.53592  0.33316  1.0000
  H   H12       1.0  0.95880  0.58555  0.18994  1.0000
  H   H13       1.0  0.92400  0.59562  0.18732  1.0000
  H   H14       1.0  0.05860  0.66307  0.33494  1.0000
  H   H15       1.0  0.13406  0.63632  0.33458  1.0000
  H   H16       1.0  0.10315  0.66446  0.19765  1.0000
  H   H17       1.0  0.13815  0.70924  0.20039  1.0000
  H   H18       1.0  0.18616  0.79829  0.25687  1.0000
  H   H19       1.0  0.14899  0.75478  0.25805  1.0000
  H   H20       1.0  0.19064  0.55707  0.24262  1.0000
  H   H21       1.0  0.22828  0.55177  0.24520  1.0000
  H   H22       1.0  0.14326  0.53380  0.18723  1.0000
  H   H23       1.0  0.10811  0.54333  0.18988  1.0000
  H   H24       1.0  0.87678  0.57317  0.24369  1.0000
  H   H25       1.0  0.83971  0.57942  0.24614  1.0000
  C   C51       1.0  0.54520  0.52013  0.33549  1.0000
  C   C52       1.0  0.56562  0.51439  0.33594  1.0000
  C   C53       1.0  0.58913  0.53790  0.33690  1.0000
  C   C54       1.0  0.56081  0.67412  0.25145  1.0000
  C   C55       1.0  0.56622  0.70034  0.25019  1.0000
  C   C56       1.0  0.56148  0.77236  0.28203  1.0000
  C   C57       1.0  0.55838  0.74700  0.28045  1.0000
  C   C58       1.0  0.42703  0.53724  0.26003  1.0000
  C   C59       1.0  0.40064  0.53133  0.26163  1.0000
  C   C60       1.0  0.34164  0.50600  0.29458  1.0000
  C   C61       1.0  0.31598  0.50225  0.29345  1.0000
  C   C62       1.0  0.30988  0.51933  0.34082  1.0000
  C   C63       1.0  0.50431  0.43577  0.25023  1.0000
  C   C64       1.0  0.51005  0.46210  0.25147  1.0000
  C   C65       1.0  0.51109  0.38840  0.28103  1.0000
  C   C66       1.0  0.50743  0.36282  0.28252  1.0000
  C   C67       1.0  0.64371  0.59860  0.25995  1.0000
  C   C68       1.0  0.67000  0.60419  0.26157  1.0000
  C   C69       1.0  0.76021  0.61446  0.34062  1.0000
  C   C70       1.0  0.75444  0.63178  0.29261  1.0000
  C   C71       1.0  0.72901  0.62860  0.29387  1.0000
  H   H26       1.0  0.76878  0.64698  0.25635  1.0000
  H   H27       1.0  0.72565  0.64159  0.25842  1.0000
  H   H28       1.0  0.67969  0.60732  0.20211  1.0000
  H   H29       1.0  0.63507  0.59805  0.19985  1.0000
  H   H30       1.0  0.60730  0.53950  0.33717  1.0000
  H   H31       1.0  0.51438  0.47241  0.19271  1.0000
  H   H32       1.0  0.50430  0.42755  0.19006  1.0000
  H   H33       1.0  0.46180  0.46946  0.33519  1.0000
  H   H34       1.0  0.43558  0.53776  0.20000  1.0000
  H   H35       1.0  0.39078  0.52795  0.20222  1.0000
  H   H36       1.0  0.30172  0.48682  0.25779  1.0000
  H   H37       1.0  0.34522  0.49315  0.25968  1.0000
  H   H38       1.0  0.54288  0.73262  0.24535  1.0000
  H   H39       1.0  0.54817  0.77555  0.24793  1.0000
  H   H40       1.0  0.56614  0.70862  0.18997  1.0000
  H   H41       1.0  0.55659  0.66392  0.19266  1.0000
  H   H42       1.0  0.52677  0.40268  0.24635  1.0000
  H   H43       1.0  0.52054  0.35936  0.24875  1.0000
  C   C72       1.0  0.42596  0.98582  0.25277  1.0000
  C   C73       1.0  0.39974  0.96501  0.25100  1.0000
  C   C74       1.0  0.32768  0.88815  0.28126  1.0000
  C   C75       1.0  0.35305  0.91042  0.28021  1.0000
  C   C76       1.0  0.56272  0.98879  0.26259  1.0000
  C   C77       1.0  0.56865  0.96834  0.26425  1.0000
  C   C78       1.0  0.59397  0.93459  0.29727  1.0000
  C   C79       1.0  0.59771  0.91268  0.29614  1.0000
  C   C80       1.0  0.66403  0.16748  0.25099  1.0000
  C   C81       1.0  0.63771  0.14690  0.25276  1.0000
  C   C82       1.0  0.71147  0.22158  0.28067  1.0000
  C   C83       1.0  0.73706  0.24351  0.28162  1.0000
  C   C84       1.0  0.50133  0.14412  0.26250  1.0000
  C   C85       1.0  0.49571  0.16480  0.26414  1.0000
  C   C86       1.0  0.46817  0.22161  0.29524  1.0000
  C   C87       1.0  0.47135  0.19936  0.29649  1.0000
  H   H44       1.0  0.45297  0.22084  0.25902  1.0000
  H   H45       1.0  0.45834  0.18308  0.26107  1.0000
  H   H46       1.0  0.49261  0.17150  0.20468  1.0000
  H   H47       1.0  0.50187  0.13614  0.20239  1.0000
  H   H48       1.0  0.62730  0.14095  0.19419  1.0000
  H   H49       1.0  0.67216  0.17574  0.19063  1.0000
  H   H50       1.0  0.56218  0.99693  0.20254  1.0000
  H   H51       1.0  0.57199  0.96194  0.20484  1.0000
  H   H52       1.0  0.61313  0.91391  0.26045  1.0000
  H   H53       1.0  0.60680  0.95108  0.26230  1.0000
  H   H54       1.0  0.36748  0.90941  0.24531  1.0000
  H   H55       1.0  0.32454  0.87176  0.24694  1.0000
  H   H56       1.0  0.39155  0.95686  0.19060  1.0000
  H   H57       1.0  0.43625  0.99200  0.19416  1.0000
  H   H58       1.0  0.69713  0.22305  0.24634  1.0000
  H   H59       1.0  0.74046  0.26012  0.24782  1.0000
  C   C88       1.0  0.24786  0.51569  0.25364  1.0000
  C   C89       1.0  0.27186  0.51560  0.25479  1.0000
  C   C90       1.0  0.28426  0.51647  0.33720  1.0000
  H   H60       1.0  0.23989  0.51612  0.19311  1.0000
  O   O1        1.0  0.28409  0.51767  0.17550  1.0000
  H   H61       1.0  0.27425  0.50040  0.14627  1.0000
  C   C91       1.0  0.58427  0.83121  0.25634  1.0000
  C   C92       1.0  0.58436  0.85529  0.25751  1.0000
  H   H62       1.0  0.58382  0.82293  0.19580  1.0000
  O   O2        1.0  0.58227  0.86560  0.17821  1.0000
  H   H63       1.0  0.59953  0.87309  0.14897  1.0000
  C   C93       1.0  0.28180  0.86480  0.33451  1.0000
  C   C94       1.0  0.26889  0.85217  0.25433  1.0000
  C   C95       1.0  0.24480  0.82817  0.25496  1.0000
  C   C96       1.0  0.23330  0.81567  0.33712  1.0000
  H   H64       1.0  0.27726  0.86021  0.19398  1.0000
  O   O3        1.0  0.23461  0.81603  0.17544  1.0000
  H   H65       1.0  0.22717  0.82591  0.14614  1.0000
  C   C97       1.0  0.82128  0.61645  0.25327  1.0000
  C   C98       1.0  0.79759  0.61715  0.25444  1.0000
  C   C99       1.0  0.78557  0.61672  0.33688  1.0000
  H   H66       1.0  0.82894  0.61569  0.19275  1.0000
  O   O4        1.0  0.78523  0.61519  0.17522  1.0000
  H   H67       1.0  0.79527  0.63238  0.14537  1.0000
  C   C100      1.0  0.48355  0.30389  0.25590  1.0000
  C   C101      1.0  0.48284  0.27950  0.25704  1.0000
  H   H68       1.0  0.48429  0.31243  0.19539  1.0000
  O   O5        1.0  0.48476  0.26922  0.17782  1.0000
  H   H69       1.0  0.46758  0.26217  0.14799  1.0000
  C   C102      1.0  0.78309  0.26587  0.33411  1.0000
  C   C103      1.0  0.79594  0.27856  0.25394  1.0000
  C   C104      1.0  0.82032  0.30225  0.25458  1.0000
  C   C105      1.0  0.83221  0.31438  0.33678  1.0000
  H   H70       1.0  0.78730  0.27082  0.19360  1.0000
  O   O6        1.0  0.83045  0.31453  0.17513  1.0000
  H   H71       1.0  0.83749  0.30445  0.14523  1.0000
  C   C106      1.0  0.09134  0.61241  0.33473  1.0000
  C   C107      1.0  0.13221  0.52833  0.40869  1.0000
  C   C108      1.0  0.11153  0.53394  0.41026  1.0000
  C   C109      1.0  0.16678  0.50397  0.37650  1.0000
  C   C110      1.0  0.18903  0.50079  0.37779  1.0000
  C   C111      1.0  0.21203  0.51812  0.32981  1.0000
  C   C112      1.0  0.13487  0.69669  0.42082  1.0000
  C   C113      1.0  0.11429  0.67037  0.41924  1.0000
  C   C114      1.0  0.21092  0.76966  0.38987  1.0000
  C   C115      1.0  0.18899  0.74408  0.39097  1.0000
  C   C116      1.0  0.95621  0.59530  0.41011  1.0000
  C   C117      1.0  0.93575  0.60124  0.40855  1.0000
  C   C118      1.0  0.88009  0.63030  0.37685  1.0000
  C   C119      1.0  0.90200  0.62655  0.37567  1.0000
  C   C120      1.0  0.95322  0.45849  0.41932  1.0000
  C   C121      1.0  0.93243  0.43226  0.42090  1.0000
  C   C122      1.0  0.87783  0.38559  0.39152  1.0000
  C   C123      1.0  0.85557  0.36023  0.39038  1.0000
  H   H72       1.0  0.83919  0.35706  0.42477  1.0000
  H   H73       1.0  0.87683  0.40000  0.42662  1.0000
  H   H74       1.0  0.92427  0.42403  0.48126  1.0000
  H   H75       1.0  0.95942  0.46872  0.47802  1.0000
  H   H76       1.0  0.96438  0.59479  0.47011  1.0000
  H   H77       1.0  0.92938  0.60459  0.46798  1.0000
  H   H78       1.0  0.13406  0.59304  0.33316  1.0000
  H   H79       1.0  0.10833  0.66001  0.47790  1.0000
  H   H80       1.0  0.14313  0.70487  0.48113  1.0000
  H   H81       1.0  0.19043  0.72976  0.42552  1.0000
  H   H82       1.0  0.22751  0.77309  0.42385  1.0000
  H   H83       1.0  0.10354  0.53449  0.47034  1.0000
  H   H84       1.0  0.13890  0.52524  0.46818  1.0000
  H   H85       1.0  0.18825  0.48559  0.41403  1.0000
  H   H86       1.0  0.15050  0.49097  0.41192  1.0000
  H   H87       1.0  0.91850  0.63939  0.41054  1.0000
  H   H88       1.0  0.88134  0.64573  0.41251  1.0000
  C   C124      1.0  0.61402  0.63302  0.33714  1.0000
  C   C125      1.0  0.60043  0.64661  0.33579  1.0000
  C   C126      1.0  0.57350  0.62830  0.33574  1.0000
  N   N5        1.0  0.57179  0.60438  0.33649  1.0000
  C   C127      1.0  0.59570  0.60609  0.33721  1.0000
  C   C128      1.0  0.60208  0.58567  0.33803  1.0000
  C   C129      1.0  0.58340  0.55832  0.33728  1.0000
  N   N6        1.0  0.55686  0.54666  0.33636  1.0000
  C   C130      1.0  0.51785  0.50145  0.33477  1.0000
  C   C131      1.0  0.49744  0.50783  0.33564  1.0000
  N   N7        1.0  0.49915  0.53174  0.33642  1.0000
  C   C132      1.0  0.47524  0.53003  0.33720  1.0000
  C   C133      1.0  0.45692  0.50310  0.33712  1.0000
  C   C134      1.0  0.47051  0.48952  0.33570  1.0000
  C   C135      1.0  0.46886  0.55045  0.33809  1.0000
  C   C136      1.0  0.48754  0.57780  0.33741  1.0000
  N   N8        1.0  0.51407  0.58946  0.33654  1.0000
  C   C137      1.0  0.52573  0.61599  0.33566  1.0000
  C   C138      1.0  0.50531  0.62173  0.33604  1.0000
  C   C139      1.0  0.48179  0.59822  0.33698  1.0000
  C   C140      1.0  0.55308  0.63467  0.33492  1.0000
  C   C141      1.0  0.56042  0.66178  0.33304  1.0000
  C   C142      1.0  0.57154  0.71500  0.33013  1.0000
  C   C143      1.0  0.57161  0.70260  0.41143  1.0000
  C   C144      1.0  0.56603  0.67631  0.41302  1.0000
  C   C145      1.0  0.57549  0.74109  0.32934  1.0000
  C   C146      1.0  0.59600  0.76160  0.37915  1.0000
  C   C147      1.0  0.59917  0.78703  0.38044  1.0000
  C   C148      1.0  0.58183  0.79279  0.33249  1.0000
  C   C149      1.0  0.44174  0.54308  0.33994  1.0000
  C   C150      1.0  0.38831  0.53130  0.34285  1.0000
  C   C151      1.0  0.40319  0.53691  0.42271  1.0000
  C   C152      1.0  0.42951  0.54265  0.42144  1.0000
  C   C153      1.0  0.36204  0.52682  0.34369  1.0000
  C   C154      1.0  0.33022  0.54001  0.39050  1.0000
  C   C155      1.0  0.35581  0.54367  0.39196  1.0000
  C   C156      1.0  0.51048  0.47433  0.33296  1.0000
  C   C157      1.0  0.50463  0.45962  0.41287  1.0000
  C   C158      1.0  0.49871  0.43323  0.41129  1.0000
  C   C159      1.0  0.49869  0.42090  0.33010  1.0000
  C   C160      1.0  0.49424  0.39464  0.32930  1.0000
  C   C161      1.0  0.48675  0.34248  0.33219  1.0000
  C   C162      1.0  0.46967  0.34858  0.37957  1.0000
  C   C163      1.0  0.47341  0.37423  0.37841  1.0000
  C   C164      1.0  0.62919  0.59301  0.33994  1.0000
  C   C165      1.0  0.64152  0.59341  0.42153  1.0000
  C   C166      1.0  0.68241  0.60413  0.34288  1.0000
  C   C167      1.0  0.66774  0.59882  0.42282  1.0000
  C   C168      1.0  0.70850  0.60810  0.34372  1.0000
  C   C169      1.0  0.71442  0.59100  0.39264  1.0000
  C   C170      1.0  0.73978  0.59411  0.39107  1.0000
  H   H89       1.0  0.74298  0.58081  0.42523  1.0000
  H   H90       1.0  0.70004  0.57550  0.42776  1.0000
  H   H91       1.0  0.67602  0.59876  0.48305  1.0000
  H   H92       1.0  0.63132  0.58921  0.48032  1.0000
  H   H93       1.0  0.63407  0.64172  0.33756  1.0000
  H   H94       1.0  0.60913  0.66667  0.33528  1.0000
  H   H95       1.0  0.55543  0.58802  0.33650  1.0000
  H   H96       1.0  0.51551  0.54810  0.33643  1.0000
  H   H97       1.0  0.56402  0.49622  0.33583  1.0000
  H   H98       1.0  0.50518  0.46818  0.47290  1.0000
  H   H99       1.0  0.49537  0.42339  0.47072  1.0000
  H   H100      1.0  0.43687  0.49440  0.33766  1.0000
  H   H101      1.0  0.50690  0.63989  0.33582  1.0000
  H   H102      1.0  0.46363  0.59662  0.33712  1.0000
  H   H103      1.0  0.43983  0.54696  0.48019  1.0000
  H   H104      1.0  0.39496  0.53689  0.48289  1.0000
  H   H105      1.0  0.37008  0.55936  0.42664  1.0000
  H   H106      1.0  0.32676  0.55312  0.42426  1.0000
  H   H107      1.0  0.56546  0.66766  0.47311  1.0000
  H   H108      1.0  0.57473  0.71228  0.47090  1.0000
  H   H109      1.0  0.61437  0.80138  0.41668  1.0000
  H   H110      1.0  0.60900  0.75825  0.41456  1.0000
  H   H111      1.0  0.46057  0.37781  0.41331  1.0000
  H   H112      1.0  0.45425  0.33432  0.41522  1.0000
  C   C171      1.0  0.46691  0.07984  0.33944  1.0000
  C   C172      1.0  0.45333  0.05267  0.33793  1.0000
  C   C173      1.0  0.47165  0.04406  0.33791  1.0000
  N   N9        1.0  0.49556  0.06626  0.33885  1.0000
  C   C174      1.0  0.49385  0.08846  0.33962  1.0000
  C   C175      1.0  0.51426  0.11526  0.34052  1.0000
  C   C176      1.0  0.54162  0.12393  0.33970  1.0000
  N   N10       1.0  0.55328  0.10906  0.33871  1.0000
  C   C177      1.0  0.57981  0.12394  0.33766  1.0000
  C   C178      1.0  0.58555  0.15010  0.33807  1.0000
  C   C179      1.0  0.56204  0.15009  0.33924  1.0000
  C   C180      1.0  0.59849  0.11527  0.33682  1.0000
  C   C181      1.0  0.59212  0.08848  0.33785  1.0000
  N   N11       1.0  0.56821  0.06627  0.33885  1.0000
  C   C182      1.0  0.56993  0.04407  0.33966  1.0000
  C   C183      1.0  0.59685  0.05269  0.33949  1.0000
  C   C184      1.0  0.61043  0.07986  0.33787  1.0000
  C   C185      1.0  0.54951  0.01727  0.34060  1.0000
  C   C186      1.0  0.52216  0.00860  0.33981  1.0000
  N   N12       1.0  0.51050  0.02347  0.33889  1.0000
  C   C187      1.0  0.48396  0.00859  0.33784  1.0000
  C   C188      1.0  0.47823  0.98244  0.33819  1.0000
  C   C189      1.0  0.50174  0.98244  0.33929  1.0000
  C   C190      1.0  0.46528  0.01726  0.33695  1.0000
  C   C191      1.0  0.43817  0.99750  0.33461  1.0000
  C   C192      1.0  0.38496  0.95540  0.33068  1.0000
  C   C193      1.0  0.39724  0.96761  0.41223  1.0000
  C   C194      1.0  0.42353  0.98831  0.41433  1.0000
  C   C195      1.0  0.35888  0.93327  0.32934  1.0000
  C   C196      1.0  0.33829  0.93310  0.37886  1.0000
  C   C197      1.0  0.31285  0.91085  0.37956  1.0000
  C   C198      1.0  0.30717  0.88791  0.33133  1.0000
  C   C199      1.0  0.55688  0.99752  0.34248  1.0000
  C   C200      1.0  0.56867  0.95588  0.34548  1.0000
  C   C201      1.0  0.56306  0.96499  0.42533  1.0000
  C   C202      1.0  0.55731  0.98557  0.42401  1.0000
  C   C203      1.0  0.57315  0.93408  0.34637  1.0000
  C   C204      1.0  0.58064  0.88942  0.34356  1.0000
  C   C205      1.0  0.55997  0.88898  0.39331  1.0000
  C   C206      1.0  0.55631  0.91091  0.39475  1.0000
  C   C207      1.0  0.62560  0.13502  0.33451  1.0000
  C   C208      1.0  0.64044  0.14382  0.41414  1.0000
  C   C209      1.0  0.66683  0.16429  0.41203  1.0000
  C   C210      1.0  0.67903  0.17667  0.33057  1.0000
  C   C211      1.0  0.70530  0.19846  0.32921  1.0000
  C   C212      1.0  0.75746  0.24311  0.33101  1.0000
  C   C213      1.0  0.75144  0.21990  0.37860  1.0000
  C   C214      1.0  0.72578  0.19799  0.37799  1.0000
  C   C215      1.0  0.50692  0.13502  0.34246  1.0000
  C   C216      1.0  0.50654  0.14680  0.42406  1.0000
  C   C217      1.0  0.49581  0.17712  0.34545  1.0000
  C   C218      1.0  0.50112  0.16760  0.42538  1.0000
  C   C219      1.0  0.49185  0.19925  0.34630  1.0000
  C   C220      1.0  0.50896  0.22216  0.39522  1.0000
  C   C221      1.0  0.50587  0.24443  0.39359  1.0000
  C   C222      1.0  0.48551  0.24461  0.34320  1.0000
  H   H113      1.0  0.51917  0.26086  0.42778  1.0000
  H   H114      1.0  0.52446  0.22321  0.43030  1.0000
  H   H115      1.0  0.50120  0.17583  0.48561  1.0000
  H   H116      1.0  0.51074  0.14068  0.48284  1.0000
  H   H117      1.0  0.45821  0.09119  0.33988  1.0000
  H   H118      1.0  0.43328  0.04131  0.33732  1.0000
  H   H119      1.0  0.51192  0.06626  0.33891  1.0000
  H   H120      1.0  0.55185  0.06627  0.33889  1.0000
  H   H121      1.0  0.56044  0.16665  0.33947  1.0000
  H   H122      1.0  0.60371  0.16666  0.33783  1.0000
  H   H123      1.0  0.63198  0.13575  0.47434  1.0000
  H   H124      1.0  0.67677  0.17073  0.47127  1.0000
  H   H125      1.0  0.63049  0.09122  0.33715  1.0000
  H   H126      1.0  0.60556  0.04134  0.33990  1.0000
  H   H127      1.0  0.46007  0.96587  0.33783  1.0000
  H   H128      1.0  0.50335  0.96588  0.33943  1.0000
  H   H129      1.0  0.55301  0.99147  0.48275  1.0000
  H   H130      1.0  0.56308  0.95667  0.48552  1.0000
  H   H131      1.0  0.54061  0.90942  0.42932  1.0000
  H   H132      1.0  0.54685  0.87234  0.42699  1.0000
  H   H133      1.0  0.43209  0.99622  0.47460  1.0000
  H   H134      1.0  0.38747  0.96087  0.47152  1.0000
  H   H135      1.0  0.29845  0.91159  0.41557  1.0000
  H   H136      1.0  0.34158  0.94934  0.41442  1.0000
  H   H137      1.0  0.72225  0.18154  0.41306  1.0000
  H   H138      1.0  0.76575  0.21870  0.41405  1.0000
  C   C223      1.0  0.27129  0.51613  0.41711  1.0000
  C   C224      1.0  0.24690  0.51542  0.41597  1.0000
  C   C225      1.0  0.23514  0.51585  0.33354  1.0000
  O   O7        1.0  0.23665  0.51736  0.49520  1.0000
  H   H139      1.0  0.27983  0.51686  0.47762  1.0000
  H   H140      1.0  0.22957  0.50018  0.52502  1.0000
  C   C226      1.0  0.58384  0.85387  0.41983  1.0000
  C   C227      1.0  0.58452  0.83018  0.41868  1.0000
  C   C228      1.0  0.58410  0.81815  0.33623  1.0000
  C   C229      1.0  0.58349  0.86666  0.33993  1.0000
  O   O8        1.0  0.58259  0.81781  0.49789  1.0000
  H   H141      1.0  0.58310  0.86155  0.48035  1.0000
  H   H142      1.0  0.59977  0.82787  0.52773  1.0000
  C   C230      1.0  0.24595  0.82855  0.41731  1.0000
  C   C231      1.0  0.26963  0.85295  0.41668  1.0000
  O   O9        1.0  0.28185  0.86311  0.49618  1.0000
  H   H143      1.0  0.23816  0.81994  0.47765  1.0000
  H   H144      1.0  0.27175  0.87015  0.52587  1.0000
  C   C232      1.0  0.79863  0.61689  0.41677  1.0000
  C   C233      1.0  0.82271  0.61697  0.41559  1.0000
  C   C234      1.0  0.83407  0.61609  0.33317  1.0000
  O   O10       1.0  0.83303  0.61489  0.49488  1.0000
  H   H145      1.0  0.79035  0.61646  0.47731  1.0000
  H   H146      1.0  0.84052  0.63216  0.52410  1.0000
  C   C235      1.0  0.48309  0.28045  0.41937  1.0000
  C   C236      1.0  0.48300  0.30445  0.41822  1.0000
  C   C237      1.0  0.48389  0.31686  0.33581  1.0000
  C   C238      1.0  0.48325  0.26772  0.33948  1.0000
  O   O11       1.0  0.48509  0.31667  0.49754  1.0000
  H   H147      1.0  0.48351  0.27247  0.47991  1.0000
  H   H148      1.0  0.46782  0.30685  0.52673  1.0000
  C   C239      1.0  0.81963  0.30141  0.41694  1.0000
  C   C240      1.0  0.79562  0.27733  0.41628  1.0000
  O   O12       1.0  0.78352  0.26709  0.49581  1.0000
  H   H149      1.0  0.82769  0.30976  0.47730  1.0000
  H   H150      1.0  0.79341  0.25965  0.52494  1.0000
