data_image0
_chemical_formula_structural       C4H2C4H2N2C4H2C4H2N2C4H2C4H2N2C2HC4HN2H2O2CHC2HC4HN2H2O2CHC2HC4HN2H2O2CHC2HC4HN2H2O2CHC2HC4HN2H2O2CHC2HC4HN2H2O2CHC2HC2HN2C2HC2HN2C2HC2HN2C6H2NH2NO2CHC6H2NH2NO2CHC6H2NH2NO2CHC6H2NH2NO2CHC6H2NH2NO2CHC6H2NH2NO2CH
_chemical_formula_sum              "C120 H78 N36 O24"
_cell_length_a       39.3471
_cell_length_b       39.3472
_cell_length_c       14.9652
_cell_angle_alpha    90
_cell_angle_beta     90
_cell_angle_gamma    120

_space_group_name_H-M_alt    "P 1"
_space_group_IT_number       1

loop_
  _space_group_symop_operation_xyz
  'x, y, z'

loop_
  _atom_site_type_symbol
  _atom_site_label
  _atom_site_symmetry_multiplicity
  _atom_site_fract_x
  _atom_site_fract_y
  _atom_site_fract_z
  _atom_site_occupancy
  C   C1        1.0  0.97978  0.48974  0.35123  1.0000
  C   C2        1.0  0.89601  0.44610  0.34820  1.0000
  C   C3        1.0  0.91714  0.42634  0.33734  1.0000
  C   C4        1.0  0.95857  0.44838  0.33633  1.0000
  H   H1        1.0  0.97299  0.43350  0.32269  1.0000
  H   H2        1.0  0.86593  0.43043  0.34795  1.0000
  C   C5        1.0  0.02250  0.51207  0.35055  1.0000
  C   C6        1.0  0.04362  0.55338  0.33503  1.0000
  C   C7        1.0  0.08506  0.57543  0.33496  1.0000
  C   C8        1.0  0.10624  0.55571  0.34528  1.0000
  H   H3        1.0  0.02914  0.56825  0.32191  1.0000
  H   H4        1.0  0.13633  0.57141  0.34459  1.0000
  N   N1        1.0  0.10665  0.61409  0.32724  1.0000
  N   N2        1.0  0.89551  0.38767  0.32953  1.0000
  C   C9        1.0  0.51328  0.49106  0.34963  1.0000
  C   C10       1.0  0.55702  0.45102  0.34484  1.0000
  C   C11       1.0  0.57669  0.49190  0.33416  1.0000
  C   C12       1.0  0.55457  0.51121  0.33385  1.0000
  H   H5        1.0  0.56943  0.54052  0.32038  1.0000
  H   H6        1.0  0.57276  0.43668  0.34432  1.0000
  C   C13       1.0  0.49100  0.51154  0.35041  1.0000
  C   C14       1.0  0.44951  0.49142  0.33742  1.0000
  C   C15       1.0  0.42764  0.51100  0.33845  1.0000
  C   C16       1.0  0.44764  0.55197  0.34723  1.0000
  H   H7        1.0  0.43434  0.46200  0.32538  1.0000
  H   H8        1.0  0.43206  0.56649  0.34709  1.0000
  N   N3        1.0  0.38894  0.49412  0.33265  1.0000
  N   N4        1.0  0.61536  0.50909  0.32636  1.0000
  C   C17       1.0  0.51156  0.02200  0.35170  1.0000
  C   C18       1.0  0.55179  0.10578  0.34723  1.0000
  C   C19       1.0  0.51087  0.08466  0.33737  1.0000
  C   C20       1.0  0.49141  0.04322  0.33701  1.0000
  H   H9        1.0  0.46205  0.02883  0.32420  1.0000
  H   H10       1.0  0.56623  0.13586  0.34662  1.0000
  C   C21       1.0  0.49112  0.97925  0.35173  1.0000
  C   C22       1.0  0.51131  0.95807  0.33703  1.0000
  C   C23       1.0  0.49196  0.91664  0.33766  1.0000
  C   C24       1.0  0.45104  0.89546  0.34770  1.0000
  H   H11       1.0  0.54066  0.97249  0.32396  1.0000
  H   H12       1.0  0.43667  0.86538  0.34724  1.0000
  N   N5        1.0  0.50910  0.89510  0.33028  1.0000
  N   N6        1.0  0.49387  0.10633  0.33007  1.0000
  C   C25       1.0  0.27487  0.46664  0.25621  1.0000
  C   C26       1.0  0.30955  0.46422  0.26055  1.0000
  H   H13       1.0  0.32692  0.47103  0.20480  1.0000
  C   C27       1.0  0.21913  0.46503  0.33943  1.0000
  C   C28       1.0  0.15865  0.48457  0.33167  1.0000
  C   C29       1.0  0.15425  0.45097  0.28575  1.0000
  C   C30       1.0  0.18435  0.44130  0.29130  1.0000
  H   H14       1.0  0.18168  0.41786  0.25573  1.0000
  N   N7        1.0  0.12045  0.42823  0.23260  1.0000
  N   N8        1.0  0.26621  0.47811  0.17763  1.0000
  H   H15       1.0  0.28296  0.48399  0.12532  1.0000
  H   H16       1.0  0.24388  0.48205  0.17145  1.0000
  O   O1        1.0  0.12925  0.42822  0.15185  1.0000
  O   O2        1.0  0.10157  0.39336  0.25961  1.0000
  C   C31       1.0  0.13335  0.49836  0.31162  1.0000
  H   H17       1.0  0.13833  0.51333  0.25479  1.0000
  C   C32       1.0  0.53845  0.80984  0.25134  1.0000
  C   C33       1.0  0.54062  0.84684  0.25535  1.0000
  H   H18       1.0  0.53419  0.85748  0.19919  1.0000
  C   C34       1.0  0.53914  0.75548  0.33565  1.0000
  C   C35       1.0  0.51920  0.67533  0.32926  1.0000
  C   C36       1.0  0.55321  0.70436  0.28427  1.0000
  C   C37       1.0  0.56308  0.74421  0.28915  1.0000
  H   H19       1.0  0.58686  0.76488  0.25430  1.0000
  N   N9        1.0  0.57621  0.69308  0.23279  1.0000
  N   N10       1.0  0.52778  0.78993  0.17241  1.0000
  H   H20       1.0  0.52236  0.80091  0.11964  1.0000
  H   H21       1.0  0.52410  0.76375  0.16630  1.0000
  O   O3        1.0  0.57696  0.70189  0.15180  1.0000
  O   O4        1.0  0.61085  0.70889  0.26132  1.0000
  C   C38       1.0  0.50534  0.63617  0.30998  1.0000
  H   H22       1.0  0.49032  0.62598  0.25324  1.0000
  C   C39       1.0  0.19280  0.72862  0.24961  1.0000
  C   C40       1.0  0.15559  0.69401  0.25284  1.0000
  H   H23       1.0  0.14491  0.67721  0.19632  1.0000
  C   C41       1.0  0.24728  0.78314  0.33505  1.0000
  C   C42       1.0  0.32754  0.84324  0.33040  1.0000
  C   C43       1.0  0.29872  0.84843  0.28500  1.0000
  C   C44       1.0  0.25883  0.81851  0.28904  1.0000
  H   H24       1.0  0.23832  0.82181  0.25394  1.0000
  N   N11       1.0  0.31028  0.88287  0.23391  1.0000
  N   N12       1.0  0.21285  0.73803  0.17086  1.0000
  H   H25       1.0  0.20184  0.72188  0.11772  1.0000
  H   H26       1.0  0.23917  0.76033  0.16526  1.0000
  O   O5        1.0  0.30179  0.87505  0.15272  1.0000
  O   O6        1.0  0.29444  0.90170  0.26228  1.0000
  C   C45       1.0  0.36677  0.86848  0.31160  1.0000
  H   H27       1.0  0.37706  0.86365  0.25503  1.0000
  C   C46       1.0  0.73021  0.53831  0.24937  1.0000
  C   C47       1.0  0.69545  0.54064  0.25213  1.0000
  H   H28       1.0  0.67871  0.53437  0.19545  1.0000
  C   C48       1.0  0.78454  0.53844  0.33567  1.0000
  C   C49       1.0  0.84439  0.51798  0.33140  1.0000
  C   C50       1.0  0.84993  0.55225  0.28665  1.0000
  C   C51       1.0  0.82011  0.56237  0.29047  1.0000
  H   H29       1.0  0.82363  0.58634  0.25571  1.0000
  N   N13       1.0  0.88461  0.57525  0.23639  1.0000
  N   N14       1.0  0.73988  0.52776  0.17083  1.0000
  H   H30       1.0  0.72384  0.52255  0.11749  1.0000
  H   H31       1.0  0.76236  0.52402  0.16551  1.0000
  O   O7        1.0  0.87714  0.57632  0.15512  1.0000
  O   O8        1.0  0.90344  0.60977  0.26560  1.0000
  C   C52       1.0  0.86953  0.50388  0.31257  1.0000
  H   H32       1.0  0.86493  0.48913  0.25551  1.0000
  C   C53       1.0  0.46601  0.19271  0.25190  1.0000
  C   C54       1.0  0.46330  0.15546  0.25545  1.0000
  H   H33       1.0  0.46956  0.14476  0.19914  1.0000
  C   C55       1.0  0.46575  0.24721  0.33666  1.0000
  C   C56       1.0  0.48591  0.32744  0.33053  1.0000
  C   C57       1.0  0.45189  0.29849  0.28539  1.0000
  C   C58       1.0  0.44192  0.25861  0.29015  1.0000
  H   H34       1.0  0.41813  0.23802  0.25515  1.0000
  N   N15       1.0  0.42903  0.30990  0.23378  1.0000
  N   N16       1.0  0.47692  0.21277  0.17317  1.0000
  H   H35       1.0  0.48218  0.20174  0.12025  1.0000
  H   H36       1.0  0.48103  0.23911  0.16741  1.0000
  O   O9        1.0  0.42839  0.30117  0.15277  1.0000
  O   O10       1.0  0.39437  0.29416  0.26208  1.0000
  C   C59       1.0  0.49992  0.36660  0.31094  1.0000
  H   H37       1.0  0.51514  0.37668  0.25443  1.0000
  C   C60       1.0  0.80973  0.27305  0.25064  1.0000
  C   C61       1.0  0.84682  0.30779  0.25421  1.0000
  H   H38       1.0  0.85747  0.32472  0.19784  1.0000
  C   C62       1.0  0.75536  0.21821  0.33557  1.0000
  C   C63       1.0  0.67522  0.15785  0.33035  1.0000
  C   C64       1.0  0.70419  0.15289  0.28498  1.0000
  C   C65       1.0  0.74403  0.18294  0.28930  1.0000
  H   H39       1.0  0.76464  0.17980  0.25422  1.0000
  N   N17       1.0  0.69283  0.11855  0.23367  1.0000
  N   N18       1.0  0.78974  0.26369  0.17180  1.0000
  H   H40       1.0  0.80072  0.27994  0.11882  1.0000
  H   H41       1.0  0.76350  0.24127  0.16598  1.0000
  O   O11       1.0  0.70139  0.12651  0.15255  1.0000
  O   O12       1.0  0.70879  0.09982  0.26197  1.0000
  C   C66       1.0  0.63604  0.13251  0.31129  1.0000
  H   H42       1.0  0.62581  0.13731  0.25460  1.0000
  C   C67       1.0  0.95671  0.50797  0.36565  1.0000
  C   C68       1.0  0.91538  0.48704  0.36042  1.0000
  H   H43       1.0  0.96969  0.53721  0.37978  1.0000
  C   C69       1.0  0.08696  0.51479  0.35804  1.0000
  C   C70       1.0  0.04566  0.49388  0.36444  1.0000
  H   H44       1.0  0.03276  0.46471  0.37918  1.0000
  N   N19       1.0  0.10809  0.49709  0.36826  1.0000
  N   N20       1.0  0.89434  0.50485  0.37011  1.0000
  C   C71       1.0  0.49514  0.44972  0.36354  1.0000
  C   C72       1.0  0.51610  0.42935  0.35742  1.0000
  H   H45       1.0  0.46596  0.43340  0.37814  1.0000
  C   C73       1.0  0.48865  0.57350  0.35792  1.0000
  C   C74       1.0  0.50945  0.55297  0.36336  1.0000
  H   H46       1.0  0.53874  0.56926  0.37669  1.0000
  N   N21       1.0  0.50653  0.61236  0.36727  1.0000
  N   N22       1.0  0.49839  0.39050  0.36743  1.0000
  C   C75       1.0  0.55294  0.04511  0.36527  1.0000
  C   C76       1.0  0.57339  0.08642  0.35923  1.0000
  H   H47       1.0  0.56925  0.03219  0.37941  1.0000
  C   C77       1.0  0.42937  0.91475  0.35949  1.0000
  C   C78       1.0  0.44974  0.95609  0.36526  1.0000
  H   H48       1.0  0.43340  0.96898  0.37921  1.0000
  N   N23       1.0  0.39049  0.89363  0.36881  1.0000
  N   N24       1.0  0.61226  0.10750  0.36865  1.0000
  C   C79       1.0  0.32242  0.45545  0.34093  1.0000
  C   C80       1.0  0.29923  0.44737  0.41899  1.0000
  C   C81       1.0  0.26411  0.44894  0.41476  1.0000
  C   C82       1.0  0.25178  0.45883  0.33503  1.0000
  C   C83       1.0  0.22253  0.49753  0.38696  1.0000
  C   C84       1.0  0.19304  0.50807  0.38357  1.0000
  H   H49       1.0  0.24804  0.51519  0.42089  1.0000
  H   H50       1.0  0.24812  0.44417  0.47210  1.0000
  N   N25       1.0  0.19975  0.54112  0.42800  1.0000
  H   H51       1.0  0.22361  0.55659  0.46259  1.0000
  H   H52       1.0  0.18072  0.54992  0.42890  1.0000
  N   N26       1.0  0.31230  0.43963  0.50072  1.0000
  O   O13       1.0  0.28796  0.40639  0.53082  1.0000
  O   O14       1.0  0.31805  0.46501  0.55890  1.0000
  C   C85       1.0  0.35950  0.45960  0.34455  1.0000
  H   H53       1.0  0.36309  0.43785  0.36713  1.0000
  C   C86       1.0  0.54856  0.86820  0.33595  1.0000
  C   C87       1.0  0.55605  0.85299  0.41461  1.0000
  C   C88       1.0  0.55472  0.81642  0.41073  1.0000
  C   C89       1.0  0.54561  0.79441  0.33078  1.0000
  C   C90       1.0  0.50621  0.72652  0.38229  1.0000
  C   C91       1.0  0.49549  0.68644  0.37963  1.0000
  H   H54       1.0  0.48842  0.73453  0.41511  1.0000
  H   H55       1.0  0.55897  0.80506  0.46851  1.0000
  N   N27       1.0  0.46212  0.66029  0.42334  1.0000
  H   H56       1.0  0.44654  0.66884  0.45695  1.0000
  H   H57       1.0  0.45324  0.63245  0.42491  1.0000
  N   N28       1.0  0.56288  0.87354  0.49647  1.0000
  O   O15       1.0  0.59584  0.88251  0.52843  1.0000
  O   O16       1.0  0.53693  0.85367  0.55337  1.0000
  C   C92       1.0  0.54402  0.90087  0.33913  1.0000
  H   H58       1.0  0.56585  0.92646  0.36032  1.0000
  C   C93       1.0  0.13400  0.68043  0.33313  1.0000
  C   C94       1.0  0.14925  0.70276  0.41228  1.0000
  C   C95       1.0  0.18605  0.73777  0.40919  1.0000
  C   C96       1.0  0.20826  0.75082  0.32954  1.0000
  C   C97       1.0  0.27603  0.77895  0.38213  1.0000
  C   C98       1.0  0.31615  0.80825  0.38030  1.0000
  H   H59       1.0  0.26784  0.75306  0.41467  1.0000
  H   H60       1.0  0.19739  0.75309  0.46730  1.0000
  N   N29       1.0  0.34210  0.80085  0.42433  1.0000
  H   H61       1.0  0.33340  0.77663  0.45764  1.0000
  H   H62       1.0  0.36995  0.81978  0.42643  1.0000
  N   N30       1.0  0.12846  0.68888  0.49381  1.0000
  O   O17       1.0  0.11980  0.71303  0.52626  1.0000
  O   O18       1.0  0.14797  0.68226  0.55062  1.0000
  C   C99       1.0  0.10106  0.64339  0.33554  1.0000
  H   H63       1.0  0.07555  0.63972  0.35699  1.0000
  C   C100      1.0  0.68163  0.54853  0.33220  1.0000
  C   C101      1.0  0.70387  0.55583  0.41157  1.0000
  C   C102      1.0  0.73902  0.55429  0.40896  1.0000
  C   C103      1.0  0.75228  0.54519  0.32956  1.0000
  C   C104      1.0  0.78002  0.50527  0.38221  1.0000
  C   C105      1.0  0.80920  0.49429  0.38058  1.0000
  H   H64       1.0  0.75397  0.48750  0.41412  1.0000
  H   H65       1.0  0.75425  0.55836  0.46724  1.0000
  N   N31       1.0  0.80148  0.46070  0.42398  1.0000
  H   H66       1.0  0.77712  0.44513  0.45679  1.0000
  H   H67       1.0  0.82032  0.45166  0.42616  1.0000
  N   N32       1.0  0.68975  0.56267  0.49284  1.0000
  O   O19       1.0  0.71369  0.59557  0.52523  1.0000
  O   O20       1.0  0.68323  0.53663  0.54985  1.0000
  C   C106      1.0  0.64446  0.54411  0.33421  1.0000
  H   H68       1.0  0.64065  0.56591  0.35527  1.0000
  C   C107      1.0  0.45502  0.13386  0.33578  1.0000
  C   C108      1.0  0.44779  0.14916  0.41466  1.0000
  C   C109      1.0  0.44969  0.18601  0.41126  1.0000
  C   C110      1.0  0.45910  0.20820  0.33155  1.0000
  C   C111      1.0  0.49867  0.27607  0.38351  1.0000
  C   C112      1.0  0.50950  0.31619  0.38093  1.0000
  H   H69       1.0  0.51638  0.26797  0.41637  1.0000
  H   H70       1.0  0.44556  0.19737  0.46917  1.0000
  N   N33       1.0  0.54287  0.34229  0.42473  1.0000
  H   H71       1.0  0.55839  0.33370  0.45839  1.0000
  H   H72       1.0  0.55179  0.37015  0.42628  1.0000
  N   N34       1.0  0.44061  0.12835  0.49625  1.0000
  O   O21       1.0  0.40773  0.11976  0.52813  1.0000
  O   O22       1.0  0.46659  0.14782  0.55338  1.0000
  C   C113      1.0  0.45906  0.10089  0.33857  1.0000
  H   H73       1.0  0.43704  0.07538  0.35947  1.0000
  C   C114      1.0  0.86832  0.32131  0.33462  1.0000
  C   C115      1.0  0.85312  0.29881  0.41355  1.0000
  C   C116      1.0  0.81643  0.26367  0.41012  1.0000
  C   C117      1.0  0.79431  0.25067  0.33034  1.0000
  C   C118      1.0  0.72648  0.22217  0.38261  1.0000
  C   C119      1.0  0.68641  0.19275  0.38050  1.0000
  H   H74       1.0  0.73452  0.24799  0.41532  1.0000
  H   H75       1.0  0.80512  0.24821  0.46807  1.0000
  N   N35       1.0  0.66031  0.19995  0.42450  1.0000
  H   H76       1.0  0.66889  0.22412  0.45796  1.0000
  H   H77       1.0  0.63249  0.18094  0.42642  1.0000
  N   N36       1.0  0.87382  0.31263  0.49520  1.0000
  O   O23       1.0  0.88266  0.28856  0.52735  1.0000
  O   O24       1.0  0.85415  0.31897  0.55211  1.0000
  C   C120      1.0  0.90118  0.35841  0.33732  1.0000
  H   H78       1.0  0.92676  0.36208  0.35819  1.0000
