data_image0
_chemical_formula_structural       C14H12C7NC12H12C2NC3NC3NC15H14C3HNO2C3HNO2C3HNO2C3HNO2C3HNO2C3HNO2C3NC2NC5NC3NC17H14CNC2NC4NC18H14C2NC19H12C3HNO2C3HNO2C3HNO2C3HNO2C3HNO2C3HNO2
_chemical_formula_sum              "C168 H90 N24 O24"
_cell_length_a       41.9203
_cell_length_b       41.9204
_cell_length_c       15.0244
_cell_angle_alpha    90.0372
_cell_angle_beta     89.9628
_cell_angle_gamma    120

_space_group_name_H-M_alt    "P 1"
_space_group_IT_number       1

loop_
  _space_group_symop_operation_xyz
  'x, y, z'

loop_
  _atom_site_type_symbol
  _atom_site_label
  _atom_site_symmetry_multiplicity
  _atom_site_fract_x
  _atom_site_fract_y
  _atom_site_fract_z
  _atom_site_occupancy
  C   C1        1.0  0.94857  0.54765  0.33321  1.0000
  C   C2        1.0  0.09803  0.53635  0.33214  1.0000
  C   C3        1.0  0.10985  0.57466  0.33285  1.0000
  C   C4        1.0  0.14637  0.63615  0.33028  1.0000
  C   C5        1.0  0.14639  0.60338  0.33444  1.0000
  C   C6        1.0  0.15664  0.75461  0.26719  1.0000
  C   C7        1.0  0.12919  0.71721  0.26486  1.0000
  C   C8        1.0  0.12583  0.52589  0.33093  1.0000
  C   C9        1.0  0.18056  0.52946  0.26269  1.0000
  C   C10       1.0  0.15117  0.53652  0.25982  1.0000
  C   C11       1.0  0.92940  0.40514  0.26476  1.0000
  C   C12       1.0  0.90217  0.36766  0.26711  1.0000
  C   C13       1.0  0.90734  0.58571  0.25962  1.0000
  C   C14       1.0  0.87780  0.59255  0.26240  1.0000
  H   H1        1.0  0.85846  0.58094  0.21328  1.0000
  H   H2        1.0  0.90881  0.57057  0.20789  1.0000
  H   H3        1.0  0.99482  0.66474  0.32858  1.0000
  H   H4        1.0  0.94762  0.41452  0.21274  1.0000
  H   H5        1.0  0.90277  0.35106  0.21822  1.0000
  H   H6        1.0  0.06358  0.45758  0.32844  1.0000
  H   H7        1.0  0.16978  0.66133  0.32832  1.0000
  H   H8        1.0  0.16981  0.60163  0.33634  1.0000
  H   H9        1.0  0.14984  0.55170  0.20805  1.0000
  H   H10       1.0  0.19994  0.54096  0.21359  1.0000
  H   H11       1.0  0.11107  0.70789  0.21268  1.0000
  H   H12       1.0  0.15628  0.77125  0.21813  1.0000
  C   C15       1.0  0.43756  0.44989  0.33018  1.0000
  C   C16       1.0  0.44413  0.50652  0.33296  1.0000
  C   C17       1.0  0.54203  0.49266  0.33279  1.0000
  C   C18       1.0  0.61292  0.61305  0.33317  1.0000
  C   C19       1.0  0.61949  0.66969  0.33026  1.0000
  C   C20       1.0  0.55334  0.65343  0.33179  1.0000
  C   C21       1.0  0.51503  0.62694  0.33246  1.0000
  N   N1        1.0  0.49860  0.58972  0.33213  1.0000
  C   C22       1.0  0.45354  0.60197  0.33002  1.0000
  C   C23       1.0  0.48631  0.63476  0.33392  1.0000
  C   C24       1.0  0.33507  0.49377  0.26699  1.0000
  C   C25       1.0  0.37247  0.50373  0.26459  1.0000
  C   C26       1.0  0.56381  0.69170  0.33057  1.0000
  C   C27       1.0  0.58138  0.76750  0.33152  1.0000
  C   C28       1.0  0.56026  0.74283  0.26226  1.0000
  C   C29       1.0  0.55317  0.70636  0.25946  1.0000
  C   C30       1.0  0.68456  0.61597  0.26456  1.0000
  C   C31       1.0  0.72202  0.62617  0.26692  1.0000
  C   C32       1.0  0.50398  0.41334  0.25923  1.0000
  C   C33       1.0  0.49714  0.37696  0.26203  1.0000
  H   H13       1.0  0.50875  0.36921  0.21293  1.0000
  H   H14       1.0  0.51912  0.42991  0.20750  1.0000
  H   H15       1.0  0.42494  0.42183  0.32813  1.0000
  H   H16       1.0  0.67519  0.62477  0.21249  1.0000
  H   H17       1.0  0.73864  0.64334  0.21804  1.0000
  H   H18       1.0  0.63212  0.69775  0.32803  1.0000
  H   H19       1.0  0.42836  0.60020  0.32791  1.0000
  H   H20       1.0  0.48807  0.65993  0.33597  1.0000
  H   H21       1.0  0.53803  0.68985  0.20764  1.0000
  H   H22       1.0  0.54874  0.75067  0.21318  1.0000
  H   H23       1.0  0.38177  0.49488  0.21241  1.0000
  H   H24       1.0  0.31841  0.47674  0.21798  1.0000
  C   C34       1.0  0.63980  0.07943  0.33023  1.0000
  C   C35       1.0  0.58316  0.02935  0.33277  1.0000
  N   N2        1.0  0.58080  0.06049  0.33212  1.0000
  C   C36       1.0  0.62352  0.12929  0.33183  1.0000
  C   C37       1.0  0.59702  0.14112  0.33256  1.0000
  C   C38       1.0  0.47662  0.09160  0.33281  1.0000
  N   N3        1.0  0.47898  0.06046  0.33199  1.0000
  C   C39       1.0  0.41999  0.04153  0.33004  1.0000
  C   C40       1.0  0.43625  0.99165  0.33159  1.0000
  C   C41       1.0  0.46275  0.97983  0.33223  1.0000
  N   N4        1.0  0.49996  0.00062  0.33190  1.0000
  C   C42       1.0  0.48772  0.94331  0.32974  1.0000
  C   C43       1.0  0.45493  0.94329  0.33363  1.0000
  C   C44       1.0  0.56519  0.96388  0.33393  1.0000
  C   C45       1.0  0.58231  0.90537  0.33326  1.0000
  C   C46       1.0  0.59594  0.93304  0.26663  1.0000
  C   C47       1.0  0.58598  0.96049  0.26428  1.0000
  C   C48       1.0  0.39799  0.96384  0.33046  1.0000
  C   C49       1.0  0.32220  0.90562  0.33162  1.0000
  C   C50       1.0  0.34685  0.90910  0.26235  1.0000
  C   C51       1.0  0.38329  0.93853  0.25932  1.0000
  C   C52       1.0  0.47368  0.16028  0.26427  1.0000
  C   C53       1.0  0.46348  0.18755  0.26664  1.0000
  C   C54       1.0  0.67637  0.18236  0.25922  1.0000
  C   C55       1.0  0.73741  0.21565  0.33153  1.0000
  C   C56       1.0  0.71274  0.21192  0.26214  1.0000
  H   H25       1.0  0.72052  0.23125  0.21299  1.0000
  H   H26       1.0  0.65983  0.18091  0.20743  1.0000
  H   H27       1.0  0.66786  0.09487  0.32797  1.0000
  H   H28       1.0  0.55790  0.06048  0.33196  1.0000
  H   H29       1.0  0.50188  0.06047  0.33181  1.0000
  H   H30       1.0  0.46489  0.14210  0.21217  1.0000
  H   H31       1.0  0.44633  0.18698  0.21774  1.0000
  H   H32       1.0  0.39193  0.02610  0.32790  1.0000
  H   H33       1.0  0.48950  0.91990  0.32752  1.0000
  H   H34       1.0  0.42976  0.91987  0.33563  1.0000
  H   H35       1.0  0.39980  0.93980  0.20758  1.0000
  H   H36       1.0  0.33898  0.88970  0.21331  1.0000
  H   H37       1.0  0.59481  0.97861  0.21209  1.0000
  H   H38       1.0  0.61298  0.93340  0.21762  1.0000
  C   C57       1.0  0.28410  0.50191  0.33063  1.0000
  C   C58       1.0  0.26604  0.50191  0.25036  1.0000
  C   C59       1.0  0.23138  0.49997  0.25411  1.0000
  H   H39       1.0  0.21906  0.49927  0.19484  1.0000
  N   N5        1.0  0.28337  0.50694  0.16633  1.0000
  O   O1        1.0  0.28985  0.53656  0.12980  1.0000
  O   O2        1.0  0.26467  0.48066  0.11398  1.0000
  C   C60       1.0  0.58786  0.87400  0.33025  1.0000
  C   C61       1.0  0.58782  0.85587  0.24999  1.0000
  C   C62       1.0  0.58973  0.82314  0.25371  1.0000
  H   H40       1.0  0.59042  0.81148  0.19444  1.0000
  N   N6        1.0  0.58278  0.86813  0.16596  1.0000
  O   O3        1.0  0.55314  0.84498  0.12946  1.0000
  O   O4        1.0  0.60904  0.87567  0.11358  1.0000
  C   C63       1.0  0.21572  0.80560  0.33066  1.0000
  C   C64       1.0  0.23382  0.82361  0.25035  1.0000
  C   C65       1.0  0.26652  0.85829  0.25398  1.0000
  H   H41       1.0  0.27817  0.87055  0.19466  1.0000
  N   N7        1.0  0.22154  0.80624  0.16638  1.0000
  O   O5        1.0  0.24470  0.79974  0.12986  1.0000
  O   O6        1.0  0.21396  0.82489  0.11397  1.0000
  C   C66       1.0  0.77331  0.61863  0.33056  1.0000
  C   C67       1.0  0.79160  0.61900  0.25030  1.0000
  C   C68       1.0  0.82648  0.62143  0.25407  1.0000
  H   H42       1.0  0.83893  0.62234  0.19480  1.0000
  N   N8        1.0  0.77435  0.61390  0.16620  1.0000
  O   O7        1.0  0.76830  0.58445  0.12933  1.0000
  O   O8        1.0  0.79286  0.64034  0.11415  1.0000
  C   C69       1.0  0.47109  0.24644  0.33025  1.0000
  C   C70       1.0  0.47070  0.26430  0.24999  1.0000
  C   C71       1.0  0.46830  0.29678  0.25374  1.0000
  H   H43       1.0  0.46733  0.30826  0.19448  1.0000
  N   N9        1.0  0.47578  0.25210  0.16588  1.0000
  O   O9        1.0  0.50522  0.27546  0.12898  1.0000
  O   O10       1.0  0.44934  0.24416  0.11386  1.0000
  C   C72       1.0  0.84330  0.31636  0.33062  1.0000
  C   C73       1.0  0.82543  0.29810  0.25031  1.0000
  C   C74       1.0  0.79295  0.26324  0.25399  1.0000
  H   H44       1.0  0.78147  0.25079  0.19470  1.0000
  N   N10       1.0  0.83766  0.31538  0.16624  1.0000
  O   O11       1.0  0.81432  0.32148  0.12936  1.0000
  O   O12       1.0  0.84560  0.29686  0.11419  1.0000
  C   C75       1.0  0.01026  0.65213  0.33077  1.0000
  C   C76       1.0  0.04811  0.67105  0.33486  1.0000
  C   C77       1.0  0.06033  0.64556  0.33331  1.0000
  N   N11       1.0  0.02920  0.61206  0.33265  1.0000
  C   C78       1.0  0.99805  0.61441  0.33211  1.0000
  C   C79       1.0  0.96039  0.58597  0.33239  1.0000
  N   N12       1.0  0.96935  0.53122  0.33284  1.0000
  C   C80       1.0  0.94857  0.49400  0.33240  1.0000
  C   C81       1.0  0.91203  0.48616  0.33077  1.0000
  C   C82       1.0  0.91203  0.51894  0.33482  1.0000
  C   C83       1.0  0.96040  0.46752  0.33315  1.0000
  C   C84       1.0  0.99807  0.47677  0.33335  1.0000
  N   N13       1.0  0.02921  0.51027  0.33252  1.0000
  C   C85       1.0  0.06036  0.50792  0.33187  1.0000
  C   C86       1.0  0.04815  0.47020  0.33044  1.0000
  C   C87       1.0  0.01030  0.45128  0.33490  1.0000
  N   N14       1.0  0.08906  0.59109  0.33249  1.0000
  C   C88       1.0  0.10983  0.62831  0.33205  1.0000
  C   C89       1.0  0.09800  0.65479  0.33297  1.0000
  C   C90       1.0  0.12580  0.69305  0.33452  1.0000
  C   C91       1.0  0.15106  0.70759  0.40577  1.0000
  C   C92       1.0  0.18061  0.74397  0.40300  1.0000
  C   C93       1.0  0.18435  0.76868  0.33373  1.0000
  C   C94       1.0  0.12907  0.50507  0.40071  1.0000
  C   C95       1.0  0.15633  0.49487  0.39846  1.0000
  C   C96       1.0  0.18405  0.50831  0.33190  1.0000
  C   C97       1.0  0.93261  0.42924  0.33444  1.0000
  C   C98       1.0  0.87443  0.35343  0.33361  1.0000
  C   C99       1.0  0.87788  0.37813  0.40273  1.0000
  C   C100      1.0  0.90724  0.41460  0.40550  1.0000
  C   C101      1.0  0.93258  0.59641  0.33091  1.0000
  C   C102      1.0  0.92915  0.61714  0.40068  1.0000
  C   C103      1.0  0.90172  0.62711  0.39839  1.0000
  C   C104      1.0  0.87405  0.61352  0.33175  1.0000
  H   H45       1.0  0.90206  0.64411  0.44751  1.0000
  H   H46       1.0  0.94727  0.62594  0.45288  1.0000
  H   H47       1.0  0.06355  0.69911  0.33719  1.0000
  H   H48       1.0  0.02920  0.58917  0.33255  1.0000
  H   H49       1.0  0.02921  0.53316  0.33245  1.0000
  H   H50       1.0  0.88861  0.52070  0.33671  1.0000
  H   H51       1.0  0.88862  0.46099  0.32865  1.0000
  H   H52       1.0  0.90857  0.43113  0.45725  1.0000
  H   H53       1.0  0.85849  0.37028  0.45180  1.0000
  H   H54       1.0  0.99488  0.42323  0.33747  1.0000
  H   H55       1.0  0.11088  0.49631  0.45278  1.0000
  H   H56       1.0  0.15575  0.47773  0.44742  1.0000
  H   H57       1.0  0.19997  0.75170  0.45206  1.0000
  H   H58       1.0  0.14964  0.69100  0.45742  1.0000
  C   C105      1.0  0.41863  0.46881  0.33459  1.0000
  N   N15       1.0  0.47762  0.50888  0.33226  1.0000
  C   C106      1.0  0.47527  0.47539  0.33167  1.0000
  C   C107      1.0  0.50371  0.46617  0.33196  1.0000
  N   N16       1.0  0.55846  0.52987  0.33245  1.0000
  C   C108      1.0  0.59568  0.54631  0.33205  1.0000
  C   C109      1.0  0.60352  0.51761  0.33041  1.0000
  C   C110      1.0  0.57074  0.48483  0.33437  1.0000
  C   C111      1.0  0.62217  0.58463  0.33287  1.0000
  N   N17       1.0  0.57942  0.61069  0.33234  1.0000
  C   C112      1.0  0.58177  0.64419  0.33164  1.0000
  C   C113      1.0  0.63841  0.65077  0.33484  1.0000
  C   C114      1.0  0.46138  0.57327  0.33171  1.0000
  C   C115      1.0  0.43490  0.53496  0.33264  1.0000
  C   C116      1.0  0.39664  0.52451  0.33424  1.0000
  C   C117      1.0  0.38212  0.53526  0.40554  1.0000
  C   C118      1.0  0.34575  0.52843  0.40286  1.0000
  C   C119      1.0  0.32101  0.50742  0.33362  1.0000
  C   C120      1.0  0.58462  0.71578  0.40034  1.0000
  C   C121      1.0  0.59481  0.75325  0.39810  1.0000
  C   C122      1.0  0.66043  0.59510  0.33421  1.0000
  C   C123      1.0  0.73623  0.61269  0.33345  1.0000
  C   C124      1.0  0.71152  0.59150  0.40259  1.0000
  C   C125      1.0  0.67506  0.58442  0.40533  1.0000
  C   C126      1.0  0.49327  0.42791  0.33050  1.0000
  C   C127      1.0  0.47252  0.40379  0.40025  1.0000
  C   C128      1.0  0.46256  0.36638  0.39801  1.0000
  C   C129      1.0  0.47616  0.35227  0.33139  1.0000
  H   H59       1.0  0.44556  0.34976  0.44712  1.0000
  H   H60       1.0  0.46373  0.41313  0.45246  1.0000
  H   H61       1.0  0.39058  0.45619  0.33673  1.0000
  H   H62       1.0  0.50052  0.53178  0.33219  1.0000
  H   H63       1.0  0.55653  0.58780  0.33218  1.0000
  H   H64       1.0  0.56898  0.45965  0.33637  1.0000
  H   H65       1.0  0.62869  0.51937  0.32836  1.0000
  H   H66       1.0  0.65850  0.56921  0.45700  1.0000
  H   H67       1.0  0.71935  0.57995  0.45163  1.0000
  H   H68       1.0  0.66647  0.66340  0.33707  1.0000
  H   H69       1.0  0.59337  0.70638  0.45245  1.0000
  H   H70       1.0  0.61193  0.76983  0.44708  1.0000
  H   H71       1.0  0.33803  0.54008  0.45195  1.0000
  H   H72       1.0  0.39873  0.55045  0.45718  1.0000
  C   C130      1.0  0.62088  0.04157  0.33444  1.0000
  C   C131      1.0  0.61429  0.09163  0.33159  1.0000
  N   N18       1.0  0.55980  0.12033  0.33219  1.0000
  C   C132      1.0  0.54336  0.14111  0.33173  1.0000
  C   C133      1.0  0.57206  0.17765  0.33006  1.0000
  C   C134      1.0  0.60485  0.17765  0.33409  1.0000
  C   C135      1.0  0.50504  0.12927  0.33253  1.0000
  C   C136      1.0  0.44549  0.02931  0.33138  1.0000
  C   C137      1.0  0.43890  0.07937  0.33450  1.0000
  C   C138      1.0  0.51642  0.97985  0.33144  1.0000
  C   C139      1.0  0.55473  0.99169  0.33236  1.0000
  C   C140      1.0  0.55444  0.93864  0.40520  1.0000
  C   C141      1.0  0.56128  0.90910  0.40249  1.0000
  C   C142      1.0  0.37394  0.96062  0.40030  1.0000
  C   C143      1.0  0.33647  0.93336  0.39815  1.0000
  C   C144      1.0  0.49457  0.15706  0.33388  1.0000
  C   C145      1.0  0.47698  0.21528  0.33317  1.0000
  C   C146      1.0  0.49817  0.21178  0.40229  1.0000
  C   C147      1.0  0.50527  0.18241  0.40498  1.0000
  C   C148      1.0  0.66177  0.15711  0.33046  1.0000
  C   C149      1.0  0.68586  0.16052  0.40030  1.0000
  C   C150      1.0  0.72327  0.18796  0.39813  1.0000
  H   H73       1.0  0.73988  0.18759  0.44726  1.0000
  H   H74       1.0  0.67650  0.14237  0.45244  1.0000
  H   H75       1.0  0.63350  0.02614  0.33649  1.0000
  H   H76       1.0  0.63002  0.20107  0.33611  1.0000
  H   H77       1.0  0.57030  0.20106  0.32797  1.0000
  H   H78       1.0  0.52047  0.18108  0.45669  1.0000
  H   H79       1.0  0.50973  0.23118  0.45132  1.0000
  H   H80       1.0  0.42628  0.09480  0.33686  1.0000
  H   H81       1.0  0.38337  0.97880  0.45239  1.0000
  H   H82       1.0  0.31992  0.93393  0.44719  1.0000
  H   H83       1.0  0.54964  0.88975  0.45158  1.0000
  H   H84       1.0  0.53924  0.94006  0.45684  1.0000
  C   C151      1.0  0.21517  0.50235  0.33486  1.0000
  C   C152      1.0  0.23308  0.50203  0.41513  1.0000
  C   C153      1.0  0.26556  0.49966  0.41136  1.0000
  H   H85       1.0  0.27706  0.49870  0.47061  1.0000
  N   N19       1.0  0.22087  0.50712  0.49922  1.0000
  O   O13       1.0  0.24422  0.53657  0.53609  1.0000
  O   O14       1.0  0.21295  0.48069  0.55126  1.0000
  C   C154      1.0  0.58732  0.80457  0.33446  1.0000
  C   C155      1.0  0.58768  0.82285  0.41473  1.0000
  C   C156      1.0  0.59011  0.85774  0.41097  1.0000
  H   H86       1.0  0.59102  0.87018  0.47024  1.0000
  N   N20       1.0  0.58253  0.80557  0.49882  1.0000
  O   O15       1.0  0.55307  0.79953  0.53562  1.0000
  O   O16       1.0  0.60895  0.82407  0.55092  1.0000
  C   C157      1.0  0.28513  0.87448  0.33468  1.0000
  C   C158      1.0  0.26689  0.85662  0.41500  1.0000
  C   C159      1.0  0.23199  0.82418  0.41134  1.0000
  H   H87       1.0  0.21957  0.81267  0.47063  1.0000
  N   N21       1.0  0.28420  0.86881  0.49904  1.0000
  O   O17       1.0  0.29025  0.84542  0.53584  1.0000
  O   O18       1.0  0.26573  0.87678  0.55119  1.0000
  C   C160      1.0  0.84268  0.61908  0.33479  1.0000
  C   C161      1.0  0.82456  0.61902  0.41506  1.0000
  C   C162      1.0  0.79183  0.62095  0.41132  1.0000
  H   H88       1.0  0.78017  0.62163  0.47059  1.0000
  N   N22       1.0  0.83679  0.61395  0.49907  1.0000
  O   O19       1.0  0.81362  0.58430  0.53552  1.0000
  O   O20       1.0  0.84433  0.64019  0.55150  1.0000
  C   C163      1.0  0.47060  0.31535  0.33446  1.0000
  C   C164      1.0  0.47068  0.29733  0.41473  1.0000
  C   C165      1.0  0.46876  0.26267  0.41100  1.0000
  H   H89       1.0  0.46807  0.25036  0.47028  1.0000
  N   N23       1.0  0.47571  0.31467  0.49874  1.0000
  O   O21       1.0  0.50535  0.32118  0.53524  1.0000
  O   O22       1.0  0.44946  0.29598  0.55112  1.0000
  C   C166      1.0  0.77434  0.24701  0.33466  1.0000
  C   C167      1.0  0.79235  0.26510  0.41497  1.0000
  C   C168      1.0  0.82703  0.29780  0.41133  1.0000
  H   H90       1.0  0.83929  0.30945  0.47065  1.0000
  N   N24       1.0  0.77496  0.25285  0.49894  1.0000
  O   O23       1.0  0.76849  0.27603  0.53540  1.0000
  O   O24       1.0  0.79360  0.24526  0.55140  1.0000
