data_image0
_chemical_formula_structural       CHC4H2CH4CH3C2H2CH4CH3CH2CH4CH2CNCNCNC18H12CNCNCNC18H12C4NC2NCHCH2C4NC2NCHCH2C3NCNCHCH2
_chemical_formula_sum              "C78 H60 N12"
_cell_length_a       29.5004
_cell_length_b       29.5006
_cell_length_c       14.9696
_cell_angle_alpha    90
_cell_angle_beta     90
_cell_angle_gamma    120

_space_group_name_H-M_alt    "P 1"
_space_group_IT_number       1

loop_
  _space_group_symop_operation_xyz
  'x, y, z'

loop_
  _atom_site_type_symbol
  _atom_site_label
  _atom_site_symmetry_multiplicity
  _atom_site_fract_x
  _atom_site_fract_y
  _atom_site_fract_z
  _atom_site_occupancy
  C   C1        1.0  0.02887  0.48333  0.27523  1.0000
  H   H1        1.0  0.02688  0.55274  0.10765  1.0000
  C   C2        1.0  0.02962  0.51680  0.42388  1.0000
  C   C3        1.0  0.03072  0.54595  0.57593  1.0000
  C   C4        1.0  0.54682  0.51857  0.27609  1.0000
  C   C5        1.0  0.51925  0.54608  0.27527  1.0000
  H   H2        1.0  0.52135  0.56711  0.21946  1.0000
  H   H3        1.0  0.56849  0.52081  0.22121  1.0000
  C   C6        1.0  0.53723  0.45963  0.03998  1.0000
  H   H4        1.0  0.45363  0.40635  0.02295  1.0000
  H   H5        1.0  0.53661  0.49415  0.06438  1.0000
  H   H6        1.0  0.57296  0.47249  0.00115  1.0000
  H   H7        1.0  0.53805  0.43709  0.09718  1.0000
  C   C7        1.0  0.41407  0.46610  0.07221  1.0000
  H   H8        1.0  0.38896  0.42399  0.06335  1.0000
  H   H9        1.0  0.39296  0.47992  0.11368  1.0000
  H   H10       1.0  0.44963  0.47443  0.10769  1.0000
  C   C8        1.0  0.48399  0.02875  0.27606  1.0000
  C   C9        1.0  0.45648  0.97368  0.27524  1.0000
  H   H11       1.0  0.43545  0.95474  0.21943  1.0000
  H   H12       1.0  0.48174  0.04819  0.22121  1.0000
  C   C10       1.0  0.54313  0.07831  0.03999  1.0000
  H   H13       1.0  0.59612  0.04765  0.02294  1.0000
  H   H14       1.0  0.50855  0.04328  0.06448  1.0000
  H   H15       1.0  0.53039  0.10128  0.00114  1.0000
  H   H16       1.0  0.56577  0.10166  0.09713  1.0000
  C   C11       1.0  0.53623  0.94841  0.07233  1.0000
  H   H17       1.0  0.57837  0.96544  0.06378  1.0000
  H   H18       1.0  0.52233  0.91348  0.11382  1.0000
  H   H19       1.0  0.52780  0.97563  0.10762  1.0000
  C   C12       1.0  0.97379  0.45575  0.27607  1.0000
  H   H20       1.0  0.04780  0.48120  0.21945  1.0000
  H   H21       1.0  0.95435  0.43404  0.22122  1.0000
  C   C13       1.0  0.92429  0.46532  0.04000  1.0000
  H   H22       1.0  0.95485  0.54895  0.02297  1.0000
  H   H23       1.0  0.95936  0.46581  0.06446  1.0000
  H   H24       1.0  0.90136  0.42961  0.00114  1.0000
  H   H25       1.0  0.90094  0.46456  0.09716  1.0000
  C   C14       1.0  0.05412  0.58836  0.07230  1.0000
  H   H26       1.0  0.03710  0.61348  0.06366  1.0000
  H   H27       1.0  0.08905  0.60941  0.11379  1.0000
  C   C15       1.0  0.35899  0.72163  0.33550  1.0000
  N   N1        1.0  0.38718  0.69659  0.33565  1.0000
  C   C16       1.0  0.36468  0.64356  0.33553  1.0000
  N   N2        1.0  0.31146  0.61537  0.33567  1.0000
  C   C17       1.0  0.28092  0.63786  0.33551  1.0000
  N   N3        1.0  0.30595  0.69108  0.33565  1.0000
  C   C18       1.0  0.39551  0.61862  0.33714  1.0000
  C   C19       1.0  0.45068  0.64760  0.32691  1.0000
  C   C20       1.0  0.48105  0.62297  0.32958  1.0000
  C   C21       1.0  0.45731  0.56849  0.34397  1.0000
  C   C22       1.0  0.40233  0.53924  0.35358  1.0000
  C   C23       1.0  0.37203  0.56383  0.34992  1.0000
  C   C24       1.0  0.38393  0.77739  0.33710  1.0000
  C   C25       1.0  0.43872  0.80869  0.34986  1.0000
  C   C26       1.0  0.46331  0.86359  0.35354  1.0000
  C   C27       1.0  0.43406  0.88933  0.34392  1.0000
  C   C28       1.0  0.37958  0.85858  0.32954  1.0000
  C   C29       1.0  0.35495  0.80358  0.32689  1.0000
  C   C30       1.0  0.22515  0.60704  0.33712  1.0000
  C   C31       1.0  0.19386  0.63053  0.34990  1.0000
  C   C32       1.0  0.13895  0.60023  0.35354  1.0000
  C   C33       1.0  0.11322  0.54526  0.34393  1.0000
  C   C34       1.0  0.14396  0.52151  0.32954  1.0000
  C   C35       1.0  0.19896  0.55187  0.32692  1.0000
  H   H28       1.0  0.50300  0.88471  0.36280  1.0000
  H   H29       1.0  0.46155  0.79191  0.35779  1.0000
  H   H30       1.0  0.35721  0.87597  0.32268  1.0000
  H   H31       1.0  0.31532  0.78289  0.31718  1.0000
  H   H32       1.0  0.21064  0.67015  0.35777  1.0000
  H   H33       1.0  0.11784  0.61880  0.36279  1.0000
  H   H34       1.0  0.21964  0.53293  0.31721  1.0000
  H   H35       1.0  0.12656  0.48175  0.32272  1.0000
  H   H36       1.0  0.33241  0.54100  0.35784  1.0000
  H   H37       1.0  0.38377  0.49956  0.36286  1.0000
  H   H38       1.0  0.52081  0.64534  0.32270  1.0000
  H   H39       1.0  0.46962  0.68723  0.31719  1.0000
  C   C36       1.0  0.63849  0.28039  0.33834  1.0000
  N   N4        1.0  0.61586  0.31081  0.33847  1.0000
  C   C37       1.0  0.64393  0.36404  0.33834  1.0000
  N   N5        1.0  0.69698  0.38667  0.33848  1.0000
  C   C38       1.0  0.72215  0.35860  0.33836  1.0000
  N   N6        1.0  0.69173  0.30555  0.33848  1.0000
  C   C39       1.0  0.61885  0.39475  0.33983  1.0000
  C   C40       1.0  0.56406  0.37119  0.35270  1.0000
  C   C41       1.0  0.53934  0.40139  0.35598  1.0000
  C   C42       1.0  0.56844  0.45635  0.34590  1.0000
  C   C43       1.0  0.62294  0.48013  0.33155  1.0000
  C   C44       1.0  0.64770  0.44989  0.32926  1.0000
  C   C45       1.0  0.60778  0.22460  0.33984  1.0000
  C   C46       1.0  0.55264  0.19832  0.32925  1.0000
  C   C47       1.0  0.52239  0.14331  0.33157  1.0000
  C   C48       1.0  0.54618  0.11259  0.34593  1.0000
  C   C49       1.0  0.60113  0.13844  0.35603  1.0000
  C   C50       1.0  0.63134  0.19337  0.35274  1.0000
  C   C51       1.0  0.77794  0.38368  0.33986  1.0000
  C   C52       1.0  0.80422  0.35483  0.32927  1.0000
  C   C53       1.0  0.85923  0.37959  0.33159  1.0000
  C   C54       1.0  0.88995  0.43410  0.34594  1.0000
  C   C55       1.0  0.86409  0.46319  0.35605  1.0000
  C   C56       1.0  0.80916  0.43846  0.35275  1.0000
  H   H40       1.0  0.48265  0.12587  0.32431  1.0000
  H   H41       1.0  0.53365  0.21893  0.31940  1.0000
  H   H42       1.0  0.61977  0.11739  0.36517  1.0000
  H   H43       1.0  0.67095  0.21023  0.36089  1.0000
  H   H44       1.0  0.78361  0.31522  0.31942  1.0000
  H   H45       1.0  0.87668  0.35730  0.32431  1.0000
  H   H46       1.0  0.79230  0.46122  0.36089  1.0000
  H   H47       1.0  0.88514  0.50289  0.36515  1.0000
  H   H48       1.0  0.68732  0.46889  0.31942  1.0000
  H   H49       1.0  0.64524  0.51988  0.32433  1.0000
  H   H50       1.0  0.49964  0.38274  0.36512  1.0000
  H   H51       1.0  0.54131  0.33158  0.36084  1.0000
  C   C57       1.0  0.48758  0.54317  0.34839  1.0000
  C   C58       1.0  0.48577  0.51334  0.42390  1.0000
  C   C59       1.0  0.51281  0.48502  0.42406  1.0000
  C   C60       1.0  0.54303  0.48658  0.34930  1.0000
  N   N7        1.0  0.50976  0.45802  0.49936  1.0000
  C   C61       1.0  0.48281  0.45565  0.57471  1.0000
  C   C62       1.0  0.45662  0.48528  0.57594  1.0000
  N   N8        1.0  0.45987  0.51198  0.49972  1.0000
  C   C63       1.0  0.48859  0.42534  0.64855  1.0000
  H   H52       1.0  0.49309  0.39349  0.62073  1.0000
  C   C64       1.0  0.42686  0.49437  0.64774  1.0000
  H   H53       1.0  0.38914  0.48539  0.61912  1.0000
  H   H54       1.0  0.44816  0.53634  0.66224  1.0000
  C   C65       1.0  0.45938  0.94490  0.34835  1.0000
  C   C66       1.0  0.48919  0.97292  0.42389  1.0000
  C   C67       1.0  0.51748  0.02829  0.42409  1.0000
  C   C68       1.0  0.51594  0.05695  0.34932  1.0000
  N   N9        1.0  0.54444  0.05223  0.49942  1.0000
  C   C69       1.0  0.54675  0.02765  0.57480  1.0000
  C   C70       1.0  0.51724  0.97182  0.57594  1.0000
  N   N10       1.0  0.49057  0.94837  0.49968  1.0000
  C   C71       1.0  0.57724  0.06373  0.64854  1.0000
  H   H55       1.0  0.60916  0.09997  0.62062  1.0000
  C   C72       1.0  0.50818  0.93295  0.64767  1.0000
  H   H56       1.0  0.51737  0.90434  0.61910  1.0000
  H   H57       1.0  0.46618  0.91212  0.66193  1.0000
  C   C73       1.0  0.05764  0.51500  0.34835  1.0000
  C   C74       1.0  0.97425  0.48973  0.42407  1.0000
  C   C75       1.0  0.94559  0.45952  0.34931  1.0000
  N   N11       1.0  0.95032  0.49274  0.49941  1.0000
  C   C76       1.0  0.97489  0.51964  0.57479  1.0000
  N   N12       1.0  0.05416  0.54271  0.49969  1.0000
  C   C77       1.0  0.93881  0.51399  0.64856  1.0000
  H   H58       1.0  0.90254  0.50962  0.62067  1.0000
  C   C78       1.0  0.06958  0.57571  0.64770  1.0000
  H   H59       1.0  0.09825  0.61349  0.61912  1.0000
  H   H60       1.0  0.09034  0.55448  0.66202  1.0000
