data_image0
_chemical_formula_structural       C2HC2HC8HC7HCH4C8HC7HCH4CNC2H2NO2CNC2H2NO2CNC2H2NO2CNC2H2NO2CNC2H2NO2CNC2H2NO2C12H4C4HC3NHNO2C4HC3NHNO2C4HC3NHNO2C4HC3NHNO2C4HC3NHNO2C4HC3NHNO2
_chemical_formula_sum              "C108 H42 N24 O24"
_cell_length_a       29.8848
_cell_length_b       29.8848
_cell_length_c       14.9224
_cell_angle_alpha    90.0016
_cell_angle_beta     89.9984
_cell_angle_gamma    120

_space_group_name_H-M_alt    "P 1"
_space_group_IT_number       1

loop_
  _space_group_symop_operation_xyz
  'x, y, z'

loop_
  _atom_site_type_symbol
  _atom_site_label
  _atom_site_symmetry_multiplicity
  _atom_site_fract_x
  _atom_site_fract_y
  _atom_site_fract_z
  _atom_site_occupancy
  C   C1        1.0  0.03945  0.59810  0.34394  1.0000
  C   C2        1.0  0.03892  0.69250  0.34524  1.0000
  H   H1        1.0  0.03895  0.72686  0.34689  1.0000
  C   C3        1.0  0.03993  0.55033  0.34395  1.0000
  C   C4        1.0  0.04046  0.45593  0.34531  1.0000
  H   H2        1.0  0.04043  0.42158  0.34698  1.0000
  C   C5        1.0  0.51580  0.55006  0.34394  1.0000
  C   C6        1.0  0.51583  0.50224  0.34369  1.0000
  C   C7        1.0  0.46825  0.45436  0.34436  1.0000
  C   C8        1.0  0.42141  0.45514  0.34525  1.0000
  C   C9        1.0  0.42040  0.50177  0.34476  1.0000
  C   C10       1.0  0.46779  0.54955  0.34364  1.0000
  C   C11       1.0  0.56404  0.50415  0.34048  1.0000
  C   C12       1.0  0.46872  0.59727  0.34147  1.0000
  H   H3        1.0  0.38705  0.42082  0.34687  1.0000
  C   C13       1.0  0.56358  0.59832  0.34395  1.0000
  C   C14       1.0  0.61159  0.59884  0.34367  1.0000
  C   C15       1.0  0.65898  0.64662  0.34480  1.0000
  C   C16       1.0  0.65797  0.69325  0.34533  1.0000
  C   C17       1.0  0.61112  0.69403  0.34441  1.0000
  C   C18       1.0  0.56355  0.64615  0.34368  1.0000
  C   C19       1.0  0.61066  0.55112  0.34154  1.0000
  H   H4        1.0  0.69233  0.72758  0.34698  1.0000
  C   C20       1.0  0.51534  0.64424  0.34042  1.0000
  H   H5        1.0  0.64410  0.54964  0.33996  1.0000
  H   H6        1.0  0.56629  0.47121  0.33695  1.0000
  H   H7        1.0  0.51308  0.67718  0.33684  1.0000
  H   H8        1.0  0.43528  0.59875  0.33983  1.0000
  C   C21       1.0  0.56384  0.07446  0.34397  1.0000
  C   C22       1.0  0.61167  0.12231  0.34371  1.0000
  C   C23       1.0  0.65955  0.12262  0.34438  1.0000
  C   C24       1.0  0.65877  0.07499  0.34525  1.0000
  C   C25       1.0  0.61214  0.02736  0.34477  1.0000
  C   C26       1.0  0.56436  0.02696  0.34366  1.0000
  C   C27       1.0  0.60976  0.16862  0.34051  1.0000
  C   C28       1.0  0.51664  0.98017  0.34149  1.0000
  H   H9        1.0  0.69309  0.07496  0.34688  1.0000
  C   C29       1.0  0.51558  0.07398  0.34398  1.0000
  C   C30       1.0  0.51507  0.12148  0.34371  1.0000
  C   C31       1.0  0.46728  0.12108  0.34485  1.0000
  C   C32       1.0  0.42066  0.07344  0.34535  1.0000
  C   C33       1.0  0.41988  0.02582  0.34443  1.0000
  C   C34       1.0  0.46776  0.02613  0.34372  1.0000
  C   C35       1.0  0.56279  0.16827  0.34159  1.0000
  H   H10       1.0  0.38633  0.07348  0.34699  1.0000
  C   C36       1.0  0.46967  0.97982  0.34044  1.0000
  H   H11       1.0  0.56427  0.20319  0.33999  1.0000
  H   H12       1.0  0.64270  0.20381  0.33697  1.0000
  H   H13       1.0  0.43673  0.94463  0.33686  1.0000
  H   H14       1.0  0.51516  0.94525  0.33983  1.0000
  C   C37       1.0  0.34642  0.50020  0.26867  1.0000
  N   N1        1.0  0.30020  0.49824  0.27400  1.0000
  C   C38       1.0  0.19103  0.47190  0.27283  1.0000
  C   C39       1.0  0.14536  0.47528  0.27356  1.0000
  H   H15       1.0  0.12009  0.46006  0.22100  1.0000
  H   H16       1.0  0.36282  0.50340  0.20716  1.0000
  N   N2        1.0  0.20055  0.44597  0.20248  1.0000
  O   O1        1.0  0.20358  0.46690  0.12795  1.0000
  O   O2        1.0  0.16595  0.39925  0.19819  1.0000
  C   C40       1.0  0.61371  0.95494  0.26867  1.0000
  N   N3        1.0  0.61567  0.91068  0.27400  1.0000
  C   C41       1.0  0.64200  0.82785  0.27283  1.0000
  C   C42       1.0  0.63862  0.77879  0.27355  1.0000
  H   H17       1.0  0.65385  0.76875  0.22101  1.0000
  H   H18       1.0  0.61051  0.96815  0.20717  1.0000
  N   N4        1.0  0.66794  0.86331  0.20249  1.0000
  O   O3        1.0  0.64701  0.84540  0.12796  1.0000
  O   O4        1.0  0.71466  0.87542  0.19819  1.0000
  C   C43       1.0  0.15898  0.76749  0.26867  1.0000
  N   N5        1.0  0.20323  0.81370  0.27400  1.0000
  C   C44       1.0  0.28606  0.92288  0.27285  1.0000
  C   C45       1.0  0.33511  0.96855  0.27357  1.0000
  H   H19       1.0  0.34515  0.99382  0.22103  1.0000
  H   H20       1.0  0.14577  0.75109  0.20717  1.0000
  N   N6        1.0  0.25060  0.91335  0.20250  1.0000
  O   O5        1.0  0.26850  0.91034  0.12797  1.0000
  O   O6        1.0  0.23848  0.94796  0.19821  1.0000
  C   C46       1.0  0.73281  0.64787  0.26870  1.0000
  N   N7        1.0  0.77905  0.64988  0.27401  1.0000
  C   C47       1.0  0.88832  0.67647  0.27273  1.0000
  C   C48       1.0  0.93399  0.67309  0.27346  1.0000
  H   H21       1.0  0.95923  0.68827  0.22086  1.0000
  H   H22       1.0  0.71628  0.64442  0.20724  1.0000
  N   N8        1.0  0.87874  0.70233  0.20233  1.0000
  O   O7        1.0  0.87569  0.68135  0.12785  1.0000
  O   O8        1.0  0.91334  0.74905  0.19792  1.0000
  C   C49       1.0  0.46604  0.19366  0.26873  1.0000
  N   N9        1.0  0.46403  0.23789  0.27403  1.0000
  C   C50       1.0  0.43744  0.32057  0.27274  1.0000
  C   C51       1.0  0.44081  0.36962  0.27346  1.0000
  H   H23       1.0  0.42564  0.37968  0.22087  1.0000
  H   H24       1.0  0.46949  0.18058  0.20727  1.0000
  N   N10       1.0  0.41157  0.28512  0.20235  1.0000
  O   O9        1.0  0.43255  0.30305  0.12787  1.0000
  O   O10       1.0  0.36485  0.27300  0.19794  1.0000
  C   C52       1.0  0.92024  0.38110  0.26870  1.0000
  N   N11       1.0  0.87601  0.33486  0.27400  1.0000
  C   C53       1.0  0.79333  0.22559  0.27273  1.0000
  C   C54       1.0  0.74427  0.17992  0.27345  1.0000
  H   H25       1.0  0.73422  0.15468  0.22087  1.0000
  H   H26       1.0  0.93332  0.39762  0.20723  1.0000
  N   N12       1.0  0.82877  0.23517  0.20233  1.0000
  O   O11       1.0  0.81084  0.23823  0.12785  1.0000
  O   O12       1.0  0.84089  0.20057  0.19791  1.0000
  C   C55       1.0  0.99160  0.59808  0.34369  1.0000
  C   C56       1.0  0.99129  0.64566  0.34437  1.0000
  C   C57       1.0  0.08655  0.69351  0.34476  1.0000
  C   C58       1.0  0.08695  0.64612  0.34364  1.0000
  C   C59       1.0  0.94529  0.54987  0.34048  1.0000
  C   C60       1.0  0.13373  0.64518  0.34148  1.0000
  C   C61       1.0  0.99243  0.50232  0.34367  1.0000
  C   C62       1.0  0.99283  0.45493  0.34480  1.0000
  C   C63       1.0  0.08808  0.50278  0.34441  1.0000
  C   C64       1.0  0.08778  0.55036  0.34369  1.0000
  C   C65       1.0  0.94564  0.50325  0.34156  1.0000
  C   C66       1.0  0.13408  0.59856  0.34043  1.0000
  H   H27       1.0  0.91072  0.46981  0.33995  1.0000
  H   H28       1.0  0.91010  0.54762  0.33695  1.0000
  H   H29       1.0  0.16928  0.60082  0.33687  1.0000
  H   H30       1.0  0.16866  0.67863  0.33985  1.0000
  C   C67       1.0  0.37126  0.49843  0.34761  1.0000
  C   C68       1.0  0.27435  0.49419  0.35158  1.0000
  C   C69       1.0  0.29805  0.49263  0.43343  1.0000
  C   C70       1.0  0.34648  0.49469  0.42996  1.0000
  H   H31       1.0  0.36380  0.49355  0.48844  1.0000
  C   C71       1.0  0.22616  0.49346  0.34579  1.0000
  C   C72       1.0  0.13415  0.49942  0.34450  1.0000
  C   C73       1.0  0.16975  0.51900  0.41593  1.0000
  N   N13       1.0  0.21339  0.51580  0.41309  1.0000
  H   H32       1.0  0.16364  0.53637  0.46984  1.0000
  N   N14       1.0  0.27316  0.48773  0.51655  1.0000
  O   O13       1.0  0.29995  0.52560  0.56690  1.0000
  O   O14       1.0  0.26369  0.44695  0.55667  1.0000
  C   C74       1.0  0.61548  0.98156  0.34762  1.0000
  C   C75       1.0  0.61972  0.88889  0.35158  1.0000
  C   C76       1.0  0.62127  0.91414  0.43344  1.0000
  C   C77       1.0  0.61921  0.96051  0.42996  1.0000
  H   H33       1.0  0.62035  0.97897  0.48845  1.0000
  C   C78       1.0  0.62044  0.84143  0.34578  1.0000
  C   C79       1.0  0.61448  0.74346  0.34450  1.0000
  C   C80       1.0  0.59489  0.75947  0.41591  1.0000
  N   N15       1.0  0.59810  0.80631  0.41309  1.0000
  H   H34       1.0  0.57755  0.73600  0.46985  1.0000
  N   N16       1.0  0.62617  0.89416  0.51656  1.0000
  O   O15       1.0  0.58830  0.88307  0.56690  1.0000
  O   O16       1.0  0.66695  0.92546  0.55668  1.0000
  C   C81       1.0  0.13236  0.74265  0.34761  1.0000
  C   C82       1.0  0.22502  0.83955  0.35159  1.0000
  C   C83       1.0  0.19976  0.81586  0.43344  1.0000
  C   C84       1.0  0.15339  0.76743  0.42996  1.0000
  H   H35       1.0  0.13492  0.75011  0.48845  1.0000
  C   C85       1.0  0.27248  0.88774  0.34579  1.0000
  C   C86       1.0  0.37045  0.97975  0.34450  1.0000
  C   C87       1.0  0.35444  0.94415  0.41592  1.0000
  N   N17       1.0  0.30760  0.90052  0.41310  1.0000
  H   H36       1.0  0.37791  0.95027  0.46986  1.0000
  N   N18       1.0  0.21974  0.84075  0.51655  1.0000
  O   O17       1.0  0.23082  0.81397  0.56692  1.0000
  O   O18       1.0  0.18843  0.85023  0.55666  1.0000
  C   C88       1.0  0.70813  0.64997  0.34763  1.0000
  C   C89       1.0  0.80505  0.65426  0.35154  1.0000
  C   C90       1.0  0.78153  0.65615  0.43337  1.0000
  C   C91       1.0  0.73308  0.65406  0.42992  1.0000
  H   H37       1.0  0.71588  0.65545  0.48839  1.0000
  C   C92       1.0  0.85322  0.65498  0.34575  1.0000
  C   C93       1.0  0.94523  0.64901  0.34446  1.0000
  C   C94       1.0  0.90967  0.62949  0.41594  1.0000
  N   N19       1.0  0.86603  0.63270  0.41313  1.0000
  H   H38       1.0  0.91582  0.61220  0.46991  1.0000
  N   N20       1.0  0.80659  0.66140  0.51641  1.0000
  O   O19       1.0  0.77992  0.62375  0.56724  1.0000
  O   O20       1.0  0.81615  0.70235  0.55602  1.0000
  C   C95       1.0  0.46394  0.16688  0.34765  1.0000
  C   C96       1.0  0.45965  0.25951  0.35156  1.0000
  C   C97       1.0  0.45776  0.23410  0.43340  1.0000
  C   C98       1.0  0.45984  0.18775  0.42995  1.0000
  H   H39       1.0  0.45846  0.16916  0.48843  1.0000
  C   C99       1.0  0.45893  0.30697  0.34577  1.0000
  C   C100      1.0  0.46490  0.40494  0.34445  1.0000
  C   C101      1.0  0.48441  0.38890  0.41595  1.0000
  N   N21       1.0  0.48121  0.34206  0.41314  1.0000
  H   H40       1.0  0.50173  0.41236  0.46990  1.0000
  N   N22       1.0  0.45250  0.25393  0.51643  1.0000
  O   O21       1.0  0.49015  0.26491  0.56727  1.0000
  O   O22       1.0  0.41155  0.22254  0.55603  1.0000
  C   C102      1.0  0.94702  0.40578  0.34762  1.0000
  C   C103      1.0  0.85439  0.30886  0.35154  1.0000
  C   C104      1.0  0.87981  0.33239  0.43337  1.0000
  C   C105      1.0  0.92616  0.38083  0.42992  1.0000
  H   H41       1.0  0.94475  0.39803  0.48839  1.0000
  C   C106      1.0  0.80694  0.26069  0.34576  1.0000
  C   C107      1.0  0.70897  0.16868  0.34447  1.0000
  C   C108      1.0  0.72501  0.20425  0.41595  1.0000
  N   N23       1.0  0.77185  0.24788  0.41314  1.0000
  H   H42       1.0  0.70157  0.19809  0.46993  1.0000
  N   N24       1.0  0.85999  0.30731  0.51641  1.0000
  O   O23       1.0  0.84901  0.33398  0.56726  1.0000
  O   O24       1.0  0.89138  0.29776  0.55600  1.0000
