data_image0
_chemical_formula_structural       C2HC2H2CHCH2C3NC2N2HC3NC2NH2NHC4H2C4H2CH3CHC3H4NHC3H2NHC2HC2H2CHCH2C3NC2N2HC3NC2NH2NHC4H2C4H2CH3CHC3H4NHC3H2NHC2HC2H2CHCH2C3NC2N2HC3NC2NH2NHC4H2C4H2CH3CHC3H4NHC3H2NHC2HC2H2CHCH2C3NC2N2HC3NC2NH2NHC4H2C4H2CH3CHC3H4NHC3H2NH
_chemical_formula_sum              "C128 H104 N32"
_cell_length_a       30.2358
_cell_length_b       30.2358
_cell_length_c       14.9924
_cell_angle_alpha    90
_cell_angle_beta     90
_cell_angle_gamma    90

_space_group_name_H-M_alt    "P 1"
_space_group_IT_number       1

loop_
  _space_group_symop_operation_xyz
  'x, y, z'

loop_
  _atom_site_type_symbol
  _atom_site_label
  _atom_site_symmetry_multiplicity
  _atom_site_fract_x
  _atom_site_fract_y
  _atom_site_fract_z
  _atom_site_occupancy
  C   C1        1.0  0.45973  0.40216  0.33136  1.0000
  C   C2        1.0  0.49227  0.43569  0.32900  1.0000
  H   H1        1.0  0.02477  0.42695  0.32250  1.0000
  C   C3        1.0  0.00972  0.05299  0.28016  1.0000
  C   C4        1.0  0.04257  0.08625  0.27839  1.0000
  H   H2        1.0  0.48244  0.05655  0.24034  1.0000
  H   H3        1.0  0.14544  0.06899  0.44357  1.0000
  C   C5        1.0  0.03678  0.12662  0.22310  1.0000
  H   H4        1.0  0.02855  0.11719  0.15462  1.0000
  C   C6        1.0  0.46903  0.35383  0.32781  1.0000
  H   H5        1.0  0.44797  0.34026  0.27497  1.0000
  H   H6        1.0  0.33905  0.45492  0.28565  1.0000
  C   C7        1.0  0.00847  0.19987  0.27083  1.0000
  C   C8        1.0  0.01192  0.22868  0.19680  1.0000
  C   C9        1.0  0.01676  0.27500  0.21026  1.0000
  N   N1        1.0  0.01847  0.30168  0.13722  1.0000
  C   C10       1.0  0.01634  0.28601  0.05252  1.0000
  C   C11       1.0  0.01170  0.24024  0.03924  1.0000
  N   N2        1.0  0.00946  0.21338  0.11160  1.0000
  N   N3        1.0  0.00097  0.15389  0.26286  1.0000
  H   H7        1.0  0.97137  0.14827  0.23125  1.0000
  C   C12       1.0  0.29182  0.01820  0.36454  1.0000
  C   C13       1.0  0.26285  0.01358  0.29080  1.0000
  C   C14       1.0  0.21654  0.00923  0.30456  1.0000
  N   N4        1.0  0.18998  0.00407  0.23197  1.0000
  C   C15       1.0  0.20570  0.00314  0.14723  1.0000
  C   C16       1.0  0.25148  0.00728  0.13349  1.0000
  N   N5        1.0  0.27822  0.01220  0.20548  1.0000
  H   H8        1.0  0.18454  0.99921  0.09475  1.0000
  H   H9        1.0  0.26457  0.00648  0.07072  1.0000
  N   N6        1.0  0.33859  0.01548  0.35670  1.0000
  H   H10       1.0  0.34906  0.03456  0.30417  1.0000
  C   C17       1.0  0.48082  0.48112  0.33461  1.0000
  C   C18       1.0  0.43540  0.49248  0.34138  1.0000
  C   C19       1.0  0.40201  0.45977  0.34228  1.0000
  C   C20       1.0  0.41501  0.41501  0.33810  1.0000
  H   H11       1.0  0.42659  0.02500  0.34670  1.0000
  H   H12       1.0  0.39107  0.39097  0.33929  1.0000
  C   C21       1.0  0.01426  0.01464  0.33368  1.0000
  C   C22       1.0  0.08048  0.08099  0.33228  1.0000
  C   C23       1.0  0.08606  0.04342  0.38699  1.0000
  C   C24       1.0  0.05286  0.01051  0.38662  1.0000
  H   H13       1.0  0.10438  0.10497  0.33184  1.0000
  H   H14       1.0  0.05664  0.48349  0.42708  1.0000
  C   C25       1.0  0.12656  0.03809  0.44211  1.0000
  H   H15       1.0  0.11725  0.03087  0.51112  1.0000
  H   H16       1.0  0.06780  0.14526  0.21975  1.0000
  H   H17       1.0  0.45802  0.33963  0.39125  1.0000
  C   C26       1.0  0.35365  0.46886  0.34630  1.0000
  H   H18       1.0  0.34079  0.45011  0.40319  1.0000
  C   C27       1.0  0.01777  0.29268  0.29750  1.0000
  C   C28       1.0  0.01500  0.26343  0.37090  1.0000
  C   C29       1.0  0.01063  0.21761  0.35764  1.0000
  H   H19       1.0  0.01778  0.30728  0.66636  1.0000
  H   H20       1.0  0.00969  0.22728  0.64314  1.0000
  H   H21       1.0  0.00747  0.19731  0.41188  1.0000
  H   H22       1.0  0.01444  0.27565  0.43452  1.0000
  N   N7        1.0  0.01517  0.33924  0.30938  1.0000
  H   H23       1.0  0.03596  0.34871  0.36006  1.0000
  C   C30       1.0  0.19906  0.00909  0.39185  1.0000
  C   C31       1.0  0.22795  0.01472  0.46494  1.0000
  C   C32       1.0  0.27375  0.01944  0.45130  1.0000
  H   H24       1.0  0.29420  0.02149  0.50550  1.0000
  H   H25       1.0  0.21584  0.01404  0.52863  1.0000
  N   N8        1.0  0.15332  0.00147  0.40402  1.0000
  H   H26       1.0  0.14860  0.97272  0.43924  1.0000
  C   C33       1.0  0.45973  0.90216  0.33136  1.0000
  C   C34       1.0  0.49227  0.93569  0.32900  1.0000
  H   H27       1.0  0.02477  0.92695  0.32250  1.0000
  C   C35       1.0  0.00972  0.55299  0.28016  1.0000
  C   C36       1.0  0.04257  0.58625  0.27839  1.0000
  H   H28       1.0  0.48244  0.55655  0.24034  1.0000
  H   H29       1.0  0.14544  0.56899  0.44357  1.0000
  C   C37       1.0  0.03678  0.62662  0.22310  1.0000
  H   H30       1.0  0.02855  0.61719  0.15462  1.0000
  C   C38       1.0  0.46903  0.85383  0.32781  1.0000
  H   H31       1.0  0.44797  0.84026  0.27497  1.0000
  H   H32       1.0  0.33905  0.95492  0.28565  1.0000
  C   C39       1.0  0.00847  0.69988  0.27083  1.0000
  C   C40       1.0  0.01192  0.72868  0.19680  1.0000
  C   C41       1.0  0.01676  0.77499  0.21026  1.0000
  N   N9        1.0  0.01847  0.80168  0.13722  1.0000
  C   C42       1.0  0.01634  0.78601  0.05252  1.0000
  C   C43       1.0  0.01170  0.74024  0.03924  1.0000
  N   N10       1.0  0.00946  0.71338  0.11160  1.0000
  N   N11       1.0  0.00097  0.65389  0.26286  1.0000
  H   H33       1.0  0.97137  0.64828  0.23125  1.0000
  C   C44       1.0  0.29182  0.51820  0.36454  1.0000
  C   C45       1.0  0.26285  0.51357  0.29080  1.0000
  C   C46       1.0  0.21654  0.50922  0.30456  1.0000
  N   N12       1.0  0.18998  0.50407  0.23197  1.0000
  C   C47       1.0  0.20570  0.50314  0.14723  1.0000
  C   C48       1.0  0.25148  0.50728  0.13349  1.0000
  N   N13       1.0  0.27822  0.51220  0.20548  1.0000
  H   H34       1.0  0.18454  0.49921  0.09475  1.0000
  H   H35       1.0  0.26457  0.50649  0.07072  1.0000
  N   N14       1.0  0.33859  0.51548  0.35670  1.0000
  H   H36       1.0  0.34906  0.53456  0.30417  1.0000
  C   C49       1.0  0.48082  0.98112  0.33461  1.0000
  C   C50       1.0  0.43540  0.99248  0.34138  1.0000
  C   C51       1.0  0.40201  0.95977  0.34228  1.0000
  C   C52       1.0  0.41501  0.91500  0.33810  1.0000
  H   H37       1.0  0.42659  0.52500  0.34670  1.0000
  H   H38       1.0  0.39107  0.89097  0.33929  1.0000
  C   C53       1.0  0.01426  0.51464  0.33368  1.0000
  C   C54       1.0  0.08048  0.58099  0.33228  1.0000
  C   C55       1.0  0.08606  0.54342  0.38699  1.0000
  C   C56       1.0  0.05286  0.51050  0.38662  1.0000
  H   H39       1.0  0.10438  0.60496  0.33184  1.0000
  H   H40       1.0  0.05664  0.98349  0.42708  1.0000
  C   C57       1.0  0.12656  0.53809  0.44211  1.0000
  H   H41       1.0  0.11725  0.53087  0.51112  1.0000
  H   H42       1.0  0.06780  0.64526  0.21975  1.0000
  H   H43       1.0  0.45802  0.83963  0.39125  1.0000
  C   C58       1.0  0.35365  0.96886  0.34630  1.0000
  H   H44       1.0  0.34079  0.95011  0.40319  1.0000
  C   C59       1.0  0.01777  0.79268  0.29750  1.0000
  C   C60       1.0  0.01500  0.76343  0.37090  1.0000
  C   C61       1.0  0.01063  0.71761  0.35764  1.0000
  H   H45       1.0  0.01778  0.80728  0.66636  1.0000
  H   H46       1.0  0.00969  0.72728  0.64314  1.0000
  H   H47       1.0  0.00747  0.69731  0.41188  1.0000
  H   H48       1.0  0.01444  0.77565  0.43452  1.0000
  N   N15       1.0  0.01517  0.83924  0.30938  1.0000
  H   H49       1.0  0.03596  0.84871  0.36006  1.0000
  C   C62       1.0  0.19906  0.50909  0.39185  1.0000
  C   C63       1.0  0.22795  0.51472  0.46494  1.0000
  C   C64       1.0  0.27375  0.51944  0.45130  1.0000
  H   H50       1.0  0.29420  0.52149  0.50550  1.0000
  H   H51       1.0  0.21584  0.51404  0.52863  1.0000
  N   N16       1.0  0.15332  0.50147  0.40402  1.0000
  H   H52       1.0  0.14860  0.47271  0.43924  1.0000
  C   C65       1.0  0.95973  0.40216  0.33136  1.0000
  C   C66       1.0  0.99227  0.43569  0.32900  1.0000
  H   H53       1.0  0.52477  0.42695  0.32250  1.0000
  C   C67       1.0  0.50972  0.05299  0.28016  1.0000
  C   C68       1.0  0.54258  0.08625  0.27839  1.0000
  H   H54       1.0  0.98244  0.05655  0.24034  1.0000
  H   H55       1.0  0.64544  0.06899  0.44357  1.0000
  C   C69       1.0  0.53678  0.12662  0.22310  1.0000
  H   H56       1.0  0.52855  0.11719  0.15462  1.0000
  C   C70       1.0  0.96903  0.35383  0.32781  1.0000
  H   H57       1.0  0.94797  0.34026  0.27497  1.0000
  H   H58       1.0  0.83905  0.45492  0.28565  1.0000
  C   C71       1.0  0.50847  0.19987  0.27083  1.0000
  C   C72       1.0  0.51192  0.22868  0.19680  1.0000
  C   C73       1.0  0.51676  0.27500  0.21026  1.0000
  N   N17       1.0  0.51847  0.30168  0.13722  1.0000
  C   C74       1.0  0.51635  0.28601  0.05252  1.0000
  C   C75       1.0  0.51170  0.24024  0.03924  1.0000
  N   N18       1.0  0.50946  0.21338  0.11160  1.0000
  N   N19       1.0  0.50097  0.15389  0.26286  1.0000
  H   H59       1.0  0.47136  0.14827  0.23125  1.0000
  C   C76       1.0  0.79182  0.01820  0.36454  1.0000
  C   C77       1.0  0.76284  0.01358  0.29080  1.0000
  C   C78       1.0  0.71654  0.00923  0.30456  1.0000
  N   N20       1.0  0.68998  0.00407  0.23197  1.0000
  C   C79       1.0  0.70570  0.00314  0.14723  1.0000
  C   C80       1.0  0.75148  0.00728  0.13349  1.0000
  N   N21       1.0  0.77822  0.01220  0.20548  1.0000
  H   H60       1.0  0.68454  0.99921  0.09475  1.0000
  H   H61       1.0  0.76457  0.00648  0.07072  1.0000
  N   N22       1.0  0.83859  0.01548  0.35670  1.0000
  H   H62       1.0  0.84906  0.03456  0.30417  1.0000
  C   C81       1.0  0.98082  0.48112  0.33461  1.0000
  C   C82       1.0  0.93540  0.49248  0.34138  1.0000
  C   C83       1.0  0.90201  0.45977  0.34228  1.0000
  C   C84       1.0  0.91500  0.41501  0.33810  1.0000
  H   H63       1.0  0.92659  0.02500  0.34670  1.0000
  H   H64       1.0  0.89107  0.39097  0.33929  1.0000
  C   C85       1.0  0.51426  0.01464  0.33368  1.0000
  C   C86       1.0  0.58048  0.08099  0.33228  1.0000
  C   C87       1.0  0.58606  0.04342  0.38699  1.0000
  C   C88       1.0  0.55286  0.01051  0.38662  1.0000
  H   H65       1.0  0.60438  0.10497  0.33184  1.0000
  H   H66       1.0  0.55664  0.48349  0.42708  1.0000
  C   C89       1.0  0.62656  0.03809  0.44211  1.0000
  H   H67       1.0  0.61725  0.03087  0.51112  1.0000
  H   H68       1.0  0.56780  0.14526  0.21975  1.0000
  H   H69       1.0  0.95802  0.33963  0.39125  1.0000
  C   C90       1.0  0.85365  0.46886  0.34630  1.0000
  H   H70       1.0  0.84079  0.45011  0.40319  1.0000
  C   C91       1.0  0.51777  0.29268  0.29750  1.0000
  C   C92       1.0  0.51500  0.26343  0.37090  1.0000
  C   C93       1.0  0.51063  0.21761  0.35764  1.0000
  H   H71       1.0  0.51778  0.30728  0.66636  1.0000
  H   H72       1.0  0.50969  0.22728  0.64314  1.0000
  H   H73       1.0  0.50747  0.19731  0.41188  1.0000
  H   H74       1.0  0.51444  0.27565  0.43452  1.0000
  N   N23       1.0  0.51517  0.33924  0.30938  1.0000
  H   H75       1.0  0.53596  0.34871  0.36006  1.0000
  C   C94       1.0  0.69905  0.00909  0.39185  1.0000
  C   C95       1.0  0.72796  0.01472  0.46494  1.0000
  C   C96       1.0  0.77375  0.01944  0.45130  1.0000
  H   H76       1.0  0.79420  0.02149  0.50550  1.0000
  H   H77       1.0  0.71584  0.01404  0.52863  1.0000
  N   N24       1.0  0.65331  0.00147  0.40402  1.0000
  H   H78       1.0  0.64860  0.97272  0.43924  1.0000
  C   C97       1.0  0.95973  0.90216  0.33136  1.0000
  C   C98       1.0  0.99227  0.93569  0.32900  1.0000
  H   H79       1.0  0.52477  0.92695  0.32250  1.0000
  C   C99       1.0  0.50972  0.55299  0.28016  1.0000
  C   C100      1.0  0.54258  0.58625  0.27839  1.0000
  H   H80       1.0  0.98244  0.55655  0.24034  1.0000
  H   H81       1.0  0.64544  0.56899  0.44357  1.0000
  C   C101      1.0  0.53678  0.62662  0.22310  1.0000
  H   H82       1.0  0.52855  0.61719  0.15462  1.0000
  C   C102      1.0  0.96903  0.85383  0.32781  1.0000
  H   H83       1.0  0.94797  0.84026  0.27497  1.0000
  H   H84       1.0  0.83905  0.95492  0.28565  1.0000
  C   C103      1.0  0.50847  0.69988  0.27083  1.0000
  C   C104      1.0  0.51192  0.72868  0.19680  1.0000
  C   C105      1.0  0.51676  0.77499  0.21026  1.0000
  N   N25       1.0  0.51847  0.80168  0.13722  1.0000
  C   C106      1.0  0.51635  0.78601  0.05252  1.0000
  C   C107      1.0  0.51170  0.74024  0.03924  1.0000
  N   N26       1.0  0.50946  0.71338  0.11160  1.0000
  N   N27       1.0  0.50097  0.65389  0.26286  1.0000
  H   H85       1.0  0.47136  0.64828  0.23125  1.0000
  C   C108      1.0  0.79182  0.51820  0.36454  1.0000
  C   C109      1.0  0.76284  0.51357  0.29080  1.0000
  C   C110      1.0  0.71654  0.50922  0.30456  1.0000
  N   N28       1.0  0.68998  0.50407  0.23197  1.0000
  C   C111      1.0  0.70570  0.50314  0.14723  1.0000
  C   C112      1.0  0.75148  0.50728  0.13349  1.0000
  N   N29       1.0  0.77822  0.51220  0.20548  1.0000
  H   H86       1.0  0.68454  0.49921  0.09475  1.0000
  H   H87       1.0  0.76457  0.50649  0.07072  1.0000
  N   N30       1.0  0.83859  0.51548  0.35670  1.0000
  H   H88       1.0  0.84906  0.53456  0.30417  1.0000
  C   C113      1.0  0.98082  0.98112  0.33461  1.0000
  C   C114      1.0  0.93540  0.99248  0.34138  1.0000
  C   C115      1.0  0.90201  0.95977  0.34228  1.0000
  C   C116      1.0  0.91500  0.91500  0.33810  1.0000
  H   H89       1.0  0.92659  0.52500  0.34670  1.0000
  H   H90       1.0  0.89107  0.89097  0.33929  1.0000
  C   C117      1.0  0.51426  0.51464  0.33368  1.0000
  C   C118      1.0  0.58048  0.58099  0.33228  1.0000
  C   C119      1.0  0.58606  0.54342  0.38699  1.0000
  C   C120      1.0  0.55286  0.51050  0.38662  1.0000
  H   H91       1.0  0.60438  0.60496  0.33184  1.0000
  H   H92       1.0  0.55664  0.98349  0.42708  1.0000
  C   C121      1.0  0.62656  0.53809  0.44211  1.0000
  H   H93       1.0  0.61725  0.53087  0.51112  1.0000
  H   H94       1.0  0.56780  0.64526  0.21975  1.0000
  H   H95       1.0  0.95802  0.83963  0.39125  1.0000
  C   C122      1.0  0.85365  0.96886  0.34630  1.0000
  H   H96       1.0  0.84079  0.95011  0.40319  1.0000
  C   C123      1.0  0.51777  0.79268  0.29750  1.0000
  C   C124      1.0  0.51500  0.76343  0.37090  1.0000
  C   C125      1.0  0.51063  0.71761  0.35764  1.0000
  H   H97       1.0  0.51778  0.80728  0.66636  1.0000
  H   H98       1.0  0.50969  0.72728  0.64314  1.0000
  H   H99       1.0  0.50747  0.69731  0.41188  1.0000
  H   H100      1.0  0.51444  0.77565  0.43452  1.0000
  N   N31       1.0  0.51517  0.83924  0.30938  1.0000
  H   H101      1.0  0.53596  0.84871  0.36006  1.0000
  C   C126      1.0  0.69905  0.50909  0.39185  1.0000
  C   C127      1.0  0.72796  0.51472  0.46494  1.0000
  C   C128      1.0  0.77375  0.51944  0.45130  1.0000
  H   H102      1.0  0.79420  0.52149  0.50550  1.0000
  H   H103      1.0  0.71584  0.51404  0.52863  1.0000
  N   N32       1.0  0.65331  0.50147  0.40402  1.0000
  H   H104      1.0  0.64860  0.47271  0.43924  1.0000
