data_image0
_chemical_formula_structural       NCHC4HCH2CHCHC2HC16H11C17H12C2NCNC2H3CH3C2NCNC2H3CH3C2NC2H3C11H8C13H9C2HC6H3C2HC6H3C2HCH
_chemical_formula_sum              "N6 C102 H72"
_cell_length_a       44.6322
_cell_length_b       44.6068
_cell_length_c       14.8881
_cell_angle_alpha    90
_cell_angle_beta     90
_cell_angle_gamma    120.031

_space_group_name_H-M_alt    "P 1"
_space_group_IT_number       1

loop_
  _space_group_symop_operation_xyz
  'x, y, z'

loop_
  _atom_site_type_symbol
  _atom_site_label
  _atom_site_symmetry_multiplicity
  _atom_site_fract_x
  _atom_site_fract_y
  _atom_site_fract_z
  _atom_site_occupancy
  N   N1        1.0  0.04223  0.52174  0.26070  1.0000
  C   C1        1.0  0.07740  0.53875  0.25589  1.0000
  H   H1        1.0  0.07388  0.53736  0.11278  1.0000
  C   C2        1.0  0.02395  0.51274  0.33863  1.0000
  C   C3        1.0  0.07882  0.53918  0.41924  1.0000
  C   C4        1.0  0.04228  0.52155  0.42129  1.0000
  C   C5        1.0  0.02367  0.51239  0.50290  1.0000
  H   H2        1.0  0.03644  0.51852  0.56313  1.0000
  C   C6        1.0  0.09346  0.54660  0.16572  1.0000
  H   H3        1.0  0.10891  0.53405  0.15726  1.0000
  H   H4        1.0  0.11012  0.57455  0.15806  1.0000
  C   C7        1.0  0.09691  0.54801  0.33671  1.0000
  H   H5        1.0  0.09237  0.54544  0.47843  1.0000
  C   C8        1.0  0.15021  0.54478  0.33789  1.0000
  H   H6        1.0  0.13596  0.51828  0.33672  1.0000
  C   C9        1.0  0.13358  0.56464  0.33747  1.0000
  C   C10       1.0  0.15404  0.60112  0.34022  1.0000
  H   H7        1.0  0.14257  0.61607  0.34100  1.0000
  C   C11       1.0  0.45475  0.85537  0.32981  1.0000
  C   C12       1.0  0.43483  0.81893  0.33335  1.0000
  C   C13       1.0  0.38097  0.74291  0.30000  1.0000
  C   C14       1.0  0.35995  0.70708  0.30734  1.0000
  C   C15       1.0  0.32339  0.69101  0.30720  1.0000
  C   C16       1.0  0.30207  0.65452  0.30780  1.0000
  C   C17       1.0  0.31813  0.63401  0.30677  1.0000
  C   C18       1.0  0.35460  0.64921  0.30702  1.0000
  C   C19       1.0  0.37513  0.68580  0.30637  1.0000
  C   C20       1.0  0.36939  0.62818  0.29980  1.0000
  C   C21       1.0  0.41112  0.61099  0.34362  1.0000
  C   C22       1.0  0.39165  0.57447  0.33474  1.0000
  C   C23       1.0  0.40813  0.55454  0.33138  1.0000
  C   C24       1.0  0.26621  0.63978  0.30131  1.0000
  C   C25       1.0  0.20730  0.59762  0.34332  1.0000
  C   C26       1.0  0.18658  0.56108  0.34106  1.0000
  H   H8        1.0  0.48104  0.86693  0.32271  1.0000
  H   H9        1.0  0.44732  0.80498  0.32953  1.0000
  H   H10       1.0  0.40155  0.69713  0.30304  1.0000
  H   H11       1.0  0.31209  0.70615  0.30455  1.0000
  H   H12       1.0  0.30303  0.60757  0.30373  1.0000
  H   H13       1.0  0.39334  0.52817  0.32582  1.0000
  H   H14       1.0  0.36518  0.56193  0.33228  1.0000
  H   H15       1.0  0.19780  0.54589  0.34208  1.0000
  H   H16       1.0  0.35960  0.60963  0.25338  1.0000
  H   H17       1.0  0.39926  0.75165  0.25291  1.0000
  H   H18       1.0  0.25739  0.65026  0.25702  1.0000
  C   C27       1.0  0.55657  0.15213  0.32911  1.0000
  C   C28       1.0  0.57646  0.18857  0.33286  1.0000
  C   C29       1.0  0.63030  0.26463  0.29947  1.0000
  C   C30       1.0  0.65132  0.30046  0.30686  1.0000
  C   C31       1.0  0.68788  0.31652  0.30681  1.0000
  C   C32       1.0  0.70922  0.35301  0.30747  1.0000
  C   C33       1.0  0.69316  0.37353  0.30644  1.0000
  C   C34       1.0  0.65669  0.35834  0.30667  1.0000
  C   C35       1.0  0.63616  0.32176  0.30592  1.0000
  C   C36       1.0  0.64192  0.37939  0.29936  1.0000
  C   C37       1.0  0.60013  0.39655  0.34273  1.0000
  C   C38       1.0  0.61962  0.43309  0.33437  1.0000
  C   C39       1.0  0.60314  0.45302  0.33085  1.0000
  C   C40       1.0  0.74508  0.36773  0.30091  1.0000
  C   C41       1.0  0.80401  0.40997  0.34239  1.0000
  C   C42       1.0  0.82475  0.44650  0.33897  1.0000
  C   C43       1.0  0.86111  0.46277  0.33558  1.0000
  H   H19       1.0  0.53026  0.14055  0.32228  1.0000
  H   H20       1.0  0.56396  0.20251  0.32944  1.0000
  H   H21       1.0  0.60974  0.31043  0.30256  1.0000
  H   H22       1.0  0.69917  0.30138  0.30412  1.0000
  H   H23       1.0  0.70826  0.39997  0.30336  1.0000
  H   H24       1.0  0.61793  0.47939  0.32558  1.0000
  H   H25       1.0  0.64609  0.44564  0.33239  1.0000
  H   H26       1.0  0.87537  0.48925  0.33353  1.0000
  H   H27       1.0  0.81353  0.46170  0.33926  1.0000
  H   H28       1.0  0.65178  0.39798  0.25305  1.0000
  H   H29       1.0  0.61198  0.25590  0.25245  1.0000
  H   H30       1.0  0.75387  0.35716  0.25686  1.0000
  C   C44       1.0  0.54995  0.45682  0.33510  1.0000
  C   C45       1.0  0.54062  0.46720  0.25450  1.0000
  N   N2        1.0  0.52353  0.48525  0.26005  1.0000
  C   C46       1.0  0.51459  0.49443  0.33820  1.0000
  N   N3        1.0  0.48757  0.52229  0.26056  1.0000
  C   C47       1.0  0.47044  0.54033  0.25579  1.0000
  C   C48       1.0  0.54763  0.45966  0.16257  1.0000
  H   H31       1.0  0.56119  0.44500  0.16176  1.0000
  H   H32       1.0  0.56351  0.48398  0.12686  1.0000
  H   H33       1.0  0.52319  0.44466  0.12672  1.0000
  C   C49       1.0  0.46261  0.54855  0.16560  1.0000
  H   H34       1.0  0.47209  0.53845  0.11267  1.0000
  H   H35       1.0  0.47495  0.57658  0.15745  1.0000
  H   H36       1.0  0.43467  0.53704  0.15761  1.0000
  C   C50       1.0  0.55269  0.09510  0.33533  1.0000
  C   C51       1.0  0.54224  0.07538  0.25472  1.0000
  N   N4        1.0  0.52417  0.04021  0.26026  1.0000
  C   C52       1.0  0.51501  0.02207  0.33840  1.0000
  N   N5        1.0  0.48714  0.96716  0.26076  1.0000
  C   C53       1.0  0.46911  0.93196  0.25600  1.0000
  C   C54       1.0  0.54978  0.08994  0.16278  1.0000
  H   H37       1.0  0.56454  0.11816  0.16196  1.0000
  H   H38       1.0  0.52548  0.08158  0.12716  1.0000
  H   H39       1.0  0.56467  0.08039  0.12687  1.0000
  C   C55       1.0  0.46087  0.91590  0.16581  1.0000
  H   H40       1.0  0.47094  0.93550  0.11288  1.0000
  H   H41       1.0  0.43286  0.90017  0.15772  1.0000
  H   H42       1.0  0.47240  0.89950  0.15772  1.0000
  C   C56       1.0  0.91439  0.45950  0.33522  1.0000
  C   C57       1.0  0.93410  0.46907  0.25463  1.0000
  N   N6        1.0  0.96925  0.48610  0.26019  1.0000
  C   C58       1.0  0.98737  0.49487  0.33836  1.0000
  C   C59       1.0  0.91954  0.46207  0.16270  1.0000
  H   H43       1.0  0.89133  0.44817  0.16192  1.0000
  H   H44       1.0  0.92825  0.44649  0.12663  1.0000
  H   H45       1.0  0.92874  0.48656  0.12722  1.0000
  C   C60       1.0  0.43878  0.87573  0.33773  1.0000
  C   C61       1.0  0.39841  0.80189  0.34433  1.0000
  C   C62       1.0  0.38267  0.82255  0.35252  1.0000
  C   C63       1.0  0.40254  0.85896  0.34926  1.0000
  C   C64       1.0  0.37808  0.76597  0.35237  1.0000
  C   C65       1.0  0.39560  0.63135  0.35152  1.0000
  C   C66       1.0  0.44759  0.62683  0.34996  1.0000
  C   C67       1.0  0.44453  0.57061  0.33746  1.0000
  C   C68       1.0  0.46410  0.60696  0.34684  1.0000
  C   C69       1.0  0.24314  0.61283  0.35105  1.0000
  C   C70       1.0  0.19045  0.61740  0.34322  1.0000
  H   H46       1.0  0.39034  0.87312  0.35578  1.0000
  H   H47       1.0  0.35646  0.81126  0.36146  1.0000
  H   H48       1.0  0.20452  0.64385  0.34700  1.0000
  H   H49       1.0  0.46257  0.65312  0.35739  1.0000
  H   H50       1.0  0.49050  0.61922  0.35200  1.0000
  H   H51       1.0  0.40536  0.65008  0.39751  1.0000
  H   H52       1.0  0.35958  0.75700  0.39896  1.0000
  H   H53       1.0  0.25195  0.60227  0.39506  1.0000
  C   C71       1.0  0.57259  0.13180  0.33651  1.0000
  C   C72       1.0  0.61290  0.20563  0.34345  1.0000
  C   C73       1.0  0.62869  0.18499  0.35101  1.0000
  C   C74       1.0  0.60885  0.14859  0.34752  1.0000
  C   C75       1.0  0.63321  0.24154  0.35166  1.0000
  C   C76       1.0  0.61565  0.37619  0.35083  1.0000
  C   C77       1.0  0.56364  0.38068  0.34833  1.0000
  C   C78       1.0  0.56672  0.43691  0.33623  1.0000
  C   C79       1.0  0.54713  0.40054  0.34499  1.0000
  C   C80       1.0  0.76819  0.39480  0.35027  1.0000
  C   C81       1.0  0.82086  0.39018  0.34327  1.0000
  C   C82       1.0  0.87773  0.44289  0.33627  1.0000
  C   C83       1.0  0.85727  0.40643  0.34013  1.0000
  H   H54       1.0  0.62108  0.13444  0.35359  1.0000
  H   H55       1.0  0.65491  0.19631  0.35962  1.0000
  H   H56       1.0  0.80678  0.36374  0.34779  1.0000
  H   H57       1.0  0.54865  0.35437  0.35535  1.0000
  H   H58       1.0  0.52070  0.38825  0.34958  1.0000
  H   H59       1.0  0.86872  0.39147  0.34156  1.0000
  H   H60       1.0  0.60579  0.35741  0.39669  1.0000
  H   H61       1.0  0.65174  0.25049  0.39817  1.0000
  H   H62       1.0  0.75943  0.40548  0.39406  1.0000
  C   C84       1.0  0.52354  0.48487  0.42054  1.0000
  C   C85       1.0  0.54111  0.46593  0.41788  1.0000
  H   H63       1.0  0.54749  0.45866  0.47692  1.0000
  C   C86       1.0  0.49669  0.51311  0.33848  1.0000
  C   C87       1.0  0.46130  0.55069  0.33661  1.0000
  C   C88       1.0  0.47033  0.54161  0.41911  1.0000
  C   C89       1.0  0.48792  0.52266  0.42114  1.0000
  C   C90       1.0  0.49703  0.51318  0.50276  1.0000
  C   C91       1.0  0.51461  0.49435  0.50246  1.0000
  H   H64       1.0  0.49090  0.51981  0.56299  1.0000
  H   H65       1.0  0.52087  0.48770  0.56248  1.0000
  H   H66       1.0  0.46408  0.54889  0.47832  1.0000
  C   C92       1.0  0.52461  0.04059  0.42075  1.0000
  C   C93       1.0  0.54360  0.07713  0.41810  1.0000
  H   H67       1.0  0.55090  0.09079  0.47715  1.0000
  C   C94       1.0  0.49631  0.98546  0.33868  1.0000
  C   C95       1.0  0.45871  0.91245  0.33683  1.0000
  C   C96       1.0  0.46776  0.93058  0.41933  1.0000
  C   C97       1.0  0.48674  0.96713  0.42135  1.0000
  C   C98       1.0  0.49624  0.98575  0.50296  1.0000
  C   C99       1.0  0.51512  0.02217  0.50268  1.0000
  H   H68       1.0  0.48960  0.97297  0.56320  1.0000
  H   H69       1.0  0.52180  0.03510  0.56270  1.0000
  H   H70       1.0  0.46046  0.91704  0.47854  1.0000
  C   C100      1.0  0.96884  0.48578  0.42070  1.0000
  C   C101      1.0  0.93231  0.46810  0.41802  1.0000
  H   H71       1.0  0.91865  0.46166  0.47704  1.0000
  C   C102      1.0  0.98726  0.49469  0.50261  1.0000
  H   H72       1.0  0.97433  0.48835  0.56264  1.0000
