data_image0
_chemical_formula_structural       C2H2CH2C2H2CH2C2H2CH2C2H2CH2C2H2CH2C2H2CH2C4NC2NHOHC4NC2NHOHC4NC2NHOHC4NC2NHOHC4NC2NHOHC4NC2NHOHC4NC2NHOCH2C4NC2NHOCH2C4NC2NHOCH2C4NC2NHOCH2C4NC2NHOCH2C4NC2NHOCH2C6H3C6H3C6H3C6H3C6H3C6H3C6H3C6H3C6H3C6H3C6H3C6H3C4NC2NHOHC4NC2NHOHC4NC2NHOHC4NC2NHOHC4NC2NHOHC4NC2NHOHC2H2CH2C2H2CH2C2H2CH2C2H2CH2C2H2CH2C2H2CH2C2H3C2H3C2H3C2H3C2H3C2H3
_chemical_formula_sum              "C234 H144 N36 O18"
_cell_length_a       37.6673
_cell_length_b       37.6672
_cell_length_c       14.8671
_cell_angle_alpha    90
_cell_angle_beta     90
_cell_angle_gamma    120

_space_group_name_H-M_alt    "P 1"
_space_group_IT_number       1

loop_
  _space_group_symop_operation_xyz
  'x, y, z'

loop_
  _atom_site_type_symbol
  _atom_site_label
  _atom_site_symmetry_multiplicity
  _atom_site_fract_x
  _atom_site_fract_y
  _atom_site_fract_z
  _atom_site_occupancy
  C   C1        1.0  0.20866  0.37365  0.25769  1.0000
  C   C2        1.0  0.23000  0.41693  0.25785  1.0000
  H   H1        1.0  0.24868  0.43216  0.20457  1.0000
  H   H2        1.0  0.21240  0.35883  0.20397  1.0000
  C   C3        1.0  0.20328  0.45100  0.01468  1.0000
  H   H3        1.0  0.19838  0.46737  0.06933  1.0000
  H   H4        1.0  0.20498  0.42521  0.04364  1.0000
  C   C4        1.0  0.62880  0.82851  0.25779  1.0000
  C   C5        1.0  0.58553  0.80656  0.25795  1.0000
  H   H5        1.0  0.57029  0.80999  0.20466  1.0000
  H   H6        1.0  0.64362  0.84707  0.20407  1.0000
  C   C6        1.0  0.55149  0.74580  0.01478  1.0000
  H   H7        1.0  0.53513  0.72452  0.06946  1.0000
  H   H8        1.0  0.57728  0.77328  0.04373  1.0000
  C   C7        1.0  0.17388  0.79381  0.25770  1.0000
  C   C8        1.0  0.19581  0.77247  0.25780  1.0000
  H   H9        1.0  0.19235  0.75380  0.20450  1.0000
  H   H10       1.0  0.15531  0.79008  0.20400  1.0000
  C   C9        1.0  0.25662  0.79913  0.01460  1.0000
  H   H11       1.0  0.27789  0.80401  0.06925  1.0000
  H   H12       1.0  0.22915  0.79747  0.04357  1.0000
  C   C10       1.0  0.79892  0.62366  0.25767  1.0000
  C   C11       1.0  0.77758  0.58038  0.25781  1.0000
  H   H13       1.0  0.75890  0.56516  0.20453  1.0000
  H   H14       1.0  0.79517  0.63848  0.20397  1.0000
  C   C12       1.0  0.80430  0.54629  0.01466  1.0000
  H   H15       1.0  0.80921  0.52992  0.06929  1.0000
  H   H16       1.0  0.80264  0.57209  0.04364  1.0000
  C   C13       1.0  0.37878  0.16878  0.25755  1.0000
  C   C14       1.0  0.42206  0.19071  0.25767  1.0000
  H   H17       1.0  0.43727  0.18724  0.20438  1.0000
  H   H18       1.0  0.36395  0.15021  0.20386  1.0000
  C   C15       1.0  0.45620  0.25154  0.01449  1.0000
  H   H19       1.0  0.47259  0.27282  0.06913  1.0000
  H   H20       1.0  0.43040  0.22407  0.04349  1.0000
  C   C16       1.0  0.83367  0.20353  0.25764  1.0000
  C   C17       1.0  0.81173  0.22486  0.25777  1.0000
  H   H21       1.0  0.81518  0.24353  0.20448  1.0000
  H   H22       1.0  0.85224  0.20727  0.20395  1.0000
  C   C18       1.0  0.75090  0.19815  0.01455  1.0000
  H   H23       1.0  0.72963  0.19325  0.06921  1.0000
  H   H24       1.0  0.77838  0.19984  0.04352  1.0000
  C   C19       1.0  0.22462  0.17356  0.31878  1.0000
  C   C20       1.0  0.19731  0.16868  0.24785  1.0000
  C   C21       1.0  0.17566  0.19079  0.24748  1.0000
  C   C22       1.0  0.18102  0.21855  0.31778  1.0000
  N   N1        1.0  0.15065  0.18528  0.17625  1.0000
  C   C23       1.0  0.14534  0.16008  0.10619  1.0000
  C   C24       1.0  0.16726  0.13894  0.10538  1.0000
  N   N2        1.0  0.19195  0.14384  0.17642  1.0000
  H   H25       1.0  0.12624  0.15720  0.05449  1.0000
  O   O1        1.0  0.16293  0.11304  0.03660  1.0000
  H   H26       1.0  0.22519  0.14008  0.00203  1.0000
  C   C25       1.0  0.82890  0.04459  0.31883  1.0000
  C   C26       1.0  0.83377  0.02215  0.24790  1.0000
  C   C27       1.0  0.81165  0.97839  0.24753  1.0000
  C   C28       1.0  0.78391  0.95600  0.31784  1.0000
  N   N3        1.0  0.81715  0.95889  0.17630  1.0000
  C   C29       1.0  0.84234  0.97877  0.10621  1.0000
  C   C30       1.0  0.86349  0.02184  0.10539  1.0000
  N   N4        1.0  0.85860  0.04163  0.17644  1.0000
  H   H27       1.0  0.84524  0.96256  0.05453  1.0000
  O   O2        1.0  0.88941  0.04340  0.03664  1.0000
  H   H28       1.0  0.86239  0.07864  0.00204  1.0000
  C   C31       1.0  0.95784  0.77783  0.31884  1.0000
  C   C32       1.0  0.98028  0.80514  0.24790  1.0000
  C   C33       1.0  0.02404  0.82680  0.24755  1.0000
  C   C34       1.0  0.04644  0.82145  0.31786  1.0000
  N   N5        1.0  0.04354  0.85180  0.17632  1.0000
  C   C35       1.0  0.02365  0.85709  0.10621  1.0000
  C   C36       1.0  0.98058  0.83517  0.10539  1.0000
  N   N6        1.0  0.96080  0.81049  0.17644  1.0000
  H   H29       1.0  0.03987  0.87621  0.05454  1.0000
  O   O3        1.0  0.95902  0.83952  0.03663  1.0000
  H   H30       1.0  0.92380  0.77726  0.00203  1.0000
  C   C37       1.0  0.78298  0.82377  0.31887  1.0000
  C   C38       1.0  0.81027  0.82863  0.24790  1.0000
  C   C39       1.0  0.83191  0.80651  0.24751  1.0000
  C   C40       1.0  0.82655  0.77876  0.31780  1.0000
  N   N7        1.0  0.85690  0.81201  0.17627  1.0000
  C   C41       1.0  0.86222  0.83722  0.10621  1.0000
  C   C42       1.0  0.84029  0.85836  0.10541  1.0000
  N   N8        1.0  0.81562  0.85347  0.17646  1.0000
  H   H31       1.0  0.88129  0.84008  0.05447  1.0000
  O   O4        1.0  0.84463  0.88426  0.03663  1.0000
  H   H32       1.0  0.78237  0.85724  0.00209  1.0000
  C   C43       1.0  0.17867  0.95274  0.31887  1.0000
  C   C44       1.0  0.17380  0.97518  0.24791  1.0000
  C   C45       1.0  0.19592  0.01894  0.24751  1.0000
  C   C46       1.0  0.22368  0.04134  0.31779  1.0000
  N   N9        1.0  0.19043  0.03843  0.17626  1.0000
  C   C47       1.0  0.16522  0.01854  0.10619  1.0000
  C   C48       1.0  0.14406  0.97547  0.10542  1.0000
  N   N10       1.0  0.14896  0.95569  0.17648  1.0000
  H   H33       1.0  0.16234  0.03475  0.05448  1.0000
  O   O5        1.0  0.11816  0.95390  0.03665  1.0000
  H   H34       1.0  0.14518  0.91866  0.00214  1.0000
  C   C49       1.0  0.04972  0.21947  0.31881  1.0000
  C   C50       1.0  0.02728  0.19217  0.24787  1.0000
  C   C51       1.0  0.98352  0.17053  0.24749  1.0000
  C   C52       1.0  0.96113  0.17588  0.31779  1.0000
  N   N11       1.0  0.96402  0.14552  0.17626  1.0000
  C   C53       1.0  0.98391  0.14022  0.10617  1.0000
  C   C54       1.0  0.02698  0.16214  0.10538  1.0000
  N   N12       1.0  0.04677  0.18681  0.17643  1.0000
  H   H35       1.0  0.96770  0.12110  0.05450  1.0000
  O   O6        1.0  0.04854  0.15778  0.03662  1.0000
  H   H36       1.0  0.08378  0.22003  0.00202  1.0000
  C   C55       1.0  0.22548  0.64712  0.36714  1.0000
  C   C56       1.0  0.21078  0.62024  0.29204  1.0000
  C   C57       1.0  0.21122  0.58243  0.29222  1.0000
  C   C58       1.0  0.22625  0.57083  0.36772  1.0000
  N   N13       1.0  0.20160  0.56060  0.21420  1.0000
  C   C59       1.0  0.19056  0.57219  0.13773  1.0000
  C   C60       1.0  0.19060  0.60952  0.13695  1.0000
  N   N14       1.0  0.20093  0.63201  0.21379  1.0000
  H   H37       1.0  0.18352  0.55451  0.08123  1.0000
  O   O7        1.0  0.18019  0.62258  0.06093  1.0000
  C   C61       1.0  0.21452  0.65693  0.01877  1.0000
  H   H38       1.0  0.23837  0.64974  0.00082  1.0000
  H   H39       1.0  0.22758  0.68398  0.06216  1.0000
  C   C62       1.0  0.35539  0.57192  0.36718  1.0000
  C   C63       1.0  0.38216  0.58398  0.29195  1.0000
  C   C64       1.0  0.41998  0.62221  0.29204  1.0000
  C   C65       1.0  0.43166  0.64885  0.36750  1.0000
  N   N15       1.0  0.44180  0.63437  0.21400  1.0000
  C   C66       1.0  0.43017  0.61169  0.13761  1.0000
  C   C67       1.0  0.39280  0.57444  0.13691  1.0000
  N   N16       1.0  0.37033  0.56232  0.21377  1.0000
  H   H40       1.0  0.44780  0.62233  0.08103  1.0000
  O   O8        1.0  0.37970  0.55095  0.06091  1.0000
  C   C68       1.0  0.34537  0.55100  0.01877  1.0000
  H   H41       1.0  0.35262  0.58205  0.00081  1.0000
  H   H42       1.0  0.31833  0.53705  0.06216  1.0000
  C   C69       1.0  0.43051  0.77690  0.36688  1.0000
  C   C70       1.0  0.41838  0.79159  0.29170  1.0000
  C   C71       1.0  0.38016  0.79119  0.29170  1.0000
  C   C72       1.0  0.35352  0.77627  0.36714  1.0000
  N   N17       1.0  0.36799  0.80082  0.21363  1.0000
  C   C73       1.0  0.39066  0.81182  0.13722  1.0000
  C   C74       1.0  0.42792  0.81171  0.13658  1.0000
  N   N18       1.0  0.44003  0.80139  0.21350  1.0000
  H   H43       1.0  0.38005  0.81884  0.08063  1.0000
  O   O9        1.0  0.45141  0.82207  0.06058  1.0000
  C   C75       1.0  0.45137  0.78768  0.01853  1.0000
  H   H44       1.0  0.42031  0.76386  0.00058  1.0000
  H   H45       1.0  0.46531  0.77460  0.06199  1.0000
  C   C76       1.0  0.78202  0.35020  0.36730  1.0000
  C   C77       1.0  0.79678  0.37699  0.29210  1.0000
  C   C78       1.0  0.79637  0.41481  0.29218  1.0000
  C   C79       1.0  0.78137  0.42651  0.36759  1.0000
  N   N19       1.0  0.80607  0.43665  0.21416  1.0000
  C   C80       1.0  0.81712  0.42503  0.13777  1.0000
  C   C81       1.0  0.81703  0.38767  0.13706  1.0000
  N   N20       1.0  0.80664  0.36518  0.21391  1.0000
  H   H46       1.0  0.82422  0.44272  0.08126  1.0000
  O   O10       1.0  0.82746  0.37460  0.06109  1.0000
  C   C82       1.0  0.79310  0.34029  0.01884  1.0000
  H   H47       1.0  0.76930  0.34755  0.00085  1.0000
  H   H48       1.0  0.77999  0.31323  0.06218  1.0000
  C   C83       1.0  0.65223  0.42537  0.36730  1.0000
  C   C84       1.0  0.62537  0.41320  0.29215  1.0000
  C   C85       1.0  0.58757  0.37494  0.29222  1.0000
  C   C86       1.0  0.57600  0.34831  0.36772  1.0000
  N   N21       1.0  0.56576  0.36276  0.21416  1.0000
  C   C87       1.0  0.57737  0.38543  0.13775  1.0000
  C   C88       1.0  0.61469  0.42272  0.13707  1.0000
  N   N22       1.0  0.63716  0.43485  0.21395  1.0000
  H   H49       1.0  0.55971  0.37481  0.08122  1.0000
  O   O11       1.0  0.62777  0.44623  0.06109  1.0000
  C   C89       1.0  0.66212  0.44624  0.01892  1.0000
  H   H50       1.0  0.65492  0.41521  0.00093  1.0000
  H   H51       1.0  0.68916  0.46021  0.06233  1.0000
  C   C90       1.0  0.57702  0.22023  0.36690  1.0000
  C   C91       1.0  0.58920  0.20558  0.29175  1.0000
  C   C92       1.0  0.62743  0.20601  0.29188  1.0000
  C   C93       1.0  0.65401  0.22101  0.36742  1.0000
  N   N23       1.0  0.63964  0.19640  0.21386  1.0000
  C   C94       1.0  0.61699  0.18534  0.13743  1.0000
  C   C95       1.0  0.57972  0.18542  0.13667  1.0000
  N   N24       1.0  0.56756  0.19574  0.21353  1.0000
  H   H52       1.0  0.62765  0.17837  0.08086  1.0000
  O   O12       1.0  0.55625  0.17502  0.06064  1.0000
  C   C96       1.0  0.55620  0.20937  0.01858  1.0000
  H   H53       1.0  0.58724  0.23324  0.00068  1.0000
  H   H54       1.0  0.54219  0.22238  0.06202  1.0000
  C   C97       1.0  0.09375  0.24130  0.32144  1.0000
  C   C98       1.0  0.11593  0.22007  0.31878  1.0000
  C   C99       1.0  0.15936  0.24091  0.31985  1.0000
  C   C100      1.0  0.18069  0.28434  0.32300  1.0000
  C   C101      1.0  0.15974  0.30680  0.32584  1.0000
  C   C102      1.0  0.11629  0.28468  0.32592  1.0000
  H   H55       1.0  0.21210  0.29992  0.32325  1.0000
  H   H56       1.0  0.10076  0.30056  0.32628  1.0000
  H   H57       1.0  0.10007  0.18866  0.31785  1.0000
  C   C103      1.0  0.76115  0.84597  0.32152  1.0000
  C   C104      1.0  0.78239  0.88939  0.31885  1.0000
  C   C105      1.0  0.76155  0.91198  0.31993  1.0000
  C   C106      1.0  0.71812  0.88988  0.32310  1.0000
  C   C107      1.0  0.69566  0.84647  0.32594  1.0000
  C   C108      1.0  0.71778  0.82514  0.32601  1.0000
  H   H58       1.0  0.70253  0.90570  0.32336  1.0000
  H   H59       1.0  0.70190  0.79373  0.32636  1.0000
  H   H60       1.0  0.81379  0.90493  0.31790  1.0000
  C   C109      1.0  0.15647  0.90872  0.32152  1.0000
  C   C110      1.0  0.11304  0.88654  0.31883  1.0000
  C   C111      1.0  0.09045  0.84311  0.31994  1.0000
  C   C112      1.0  0.11255  0.82178  0.32310  1.0000
  C   C113      1.0  0.15596  0.84272  0.32593  1.0000
  C   C114      1.0  0.17730  0.88617  0.32601  1.0000
  H   H61       1.0  0.09673  0.79037  0.32335  1.0000
  H   H62       1.0  0.20870  0.90170  0.32636  1.0000
  H   H63       1.0  0.09750  0.90240  0.31794  1.0000
  C   C115      1.0  0.91382  0.75599  0.32145  1.0000
  C   C116      1.0  0.89163  0.77723  0.31876  1.0000
  C   C117      1.0  0.84820  0.75639  0.31987  1.0000
  C   C118      1.0  0.82687  0.71296  0.32304  1.0000
  C   C119      1.0  0.84783  0.69050  0.32586  1.0000
  C   C120      1.0  0.89127  0.71262  0.32591  1.0000
  H   H64       1.0  0.79547  0.69738  0.32330  1.0000
  H   H65       1.0  0.90681  0.69675  0.32632  1.0000
  H   H66       1.0  0.90749  0.80864  0.31789  1.0000
  C   C121      1.0  0.24646  0.15137  0.32141  1.0000
  C   C122      1.0  0.22521  0.10795  0.31874  1.0000
  C   C123      1.0  0.24605  0.08535  0.31985  1.0000
  C   C124      1.0  0.28948  0.10745  0.32298  1.0000
  C   C125      1.0  0.31194  0.15086  0.32578  1.0000
  C   C126      1.0  0.28983  0.17220  0.32584  1.0000
  H   H67       1.0  0.30507  0.09163  0.32324  1.0000
  H   H68       1.0  0.30571  0.20360  0.32623  1.0000
  H   H69       1.0  0.19381  0.09240  0.31788  1.0000
  C   C127      1.0  0.85110  0.08861  0.32145  1.0000
  C   C128      1.0  0.89452  0.11080  0.31878  1.0000
  C   C129      1.0  0.91711  0.15423  0.31986  1.0000
  C   C130      1.0  0.89501  0.17556  0.32301  1.0000
  C   C131      1.0  0.85160  0.15461  0.32583  1.0000
  C   C132      1.0  0.83027  0.11116  0.32589  1.0000
  H   H70       1.0  0.91083  0.20696  0.32326  1.0000
  H   H71       1.0  0.79886  0.09563  0.32629  1.0000
  H   H72       1.0  0.91006  0.09493  0.31788  1.0000
  C   C133      1.0  0.31216  0.54770  0.35601  1.0000
  C   C134      1.0  0.28886  0.56737  0.36772  1.0000
  C   C135      1.0  0.24586  0.54721  0.35669  1.0000
  C   C136      1.0  0.22550  0.50499  0.33544  1.0000
  C   C137      1.0  0.24722  0.48321  0.32889  1.0000
  C   C138      1.0  0.29076  0.50546  0.33409  1.0000
  H   H73       1.0  0.19415  0.48936  0.33152  1.0000
  H   H74       1.0  0.30675  0.49011  0.33084  1.0000
  H   H75       1.0  0.30420  0.59842  0.37900  1.0000
  C   C139      1.0  0.45472  0.75790  0.35579  1.0000
  C   C140      1.0  0.43504  0.71492  0.36744  1.0000
  C   C141      1.0  0.45524  0.69210  0.35665  1.0000
  C   C142      1.0  0.49748  0.71398  0.33553  1.0000
  C   C143      1.0  0.51925  0.75748  0.32896  1.0000
  C   C144      1.0  0.49699  0.77875  0.33417  1.0000
  H   H76       1.0  0.51312  0.69827  0.33164  1.0000
  H   H77       1.0  0.51235  0.81010  0.33075  1.0000
  H   H78       1.0  0.40398  0.69918  0.37854  1.0000
  C   C145      1.0  0.24446  0.69031  0.35563  1.0000
  C   C146      1.0  0.28744  0.71360  0.36714  1.0000
  C   C147      1.0  0.31027  0.75660  0.35629  1.0000
  C   C148      1.0  0.28839  0.77696  0.33518  1.0000
  C   C149      1.0  0.24489  0.75524  0.32870  1.0000
  C   C150      1.0  0.22360  0.71170  0.33384  1.0000
  H   H79       1.0  0.30410  0.80831  0.33131  1.0000
  H   H80       1.0  0.19225  0.69574  0.33089  1.0000
  H   H81       1.0  0.30317  0.69827  0.37841  1.0000
  C   C151      1.0  0.69542  0.44959  0.35586  1.0000
  C   C152      1.0  0.71873  0.42992  0.36754  1.0000
  C   C153      1.0  0.76173  0.45010  0.35663  1.0000
  C   C154      1.0  0.78208  0.49230  0.33519  1.0000
  C   C155      1.0  0.76036  0.51409  0.32878  1.0000
  C   C156      1.0  0.71681  0.49183  0.33393  1.0000
  H   H82       1.0  0.81343  0.50796  0.33154  1.0000
  H   H83       1.0  0.70084  0.50721  0.33092  1.0000
  H   H84       1.0  0.70340  0.39888  0.37892  1.0000
  C   C157      1.0  0.55283  0.23927  0.35577  1.0000
  C   C158      1.0  0.57251  0.28224  0.36760  1.0000
  C   C159      1.0  0.55237  0.30509  0.35653  1.0000
  C   C160      1.0  0.51016  0.28326  0.33509  1.0000
  C   C161      1.0  0.48836  0.23975  0.32862  1.0000
  C   C162      1.0  0.51061  0.21845  0.33372  1.0000
  H   H85       1.0  0.49452  0.29897  0.33147  1.0000
  H   H86       1.0  0.49521  0.18710  0.33058  1.0000
  H   H87       1.0  0.60356  0.29795  0.37890  1.0000
  C   C163      1.0  0.76306  0.30699  0.35592  1.0000
  C   C164      1.0  0.72009  0.28366  0.36769  1.0000
  C   C165      1.0  0.69727  0.24066  0.35659  1.0000
  C   C166      1.0  0.71914  0.22033  0.33516  1.0000
  C   C167      1.0  0.76265  0.24207  0.32873  1.0000
  C   C168      1.0  0.78392  0.28560  0.33401  1.0000
  H   H88       1.0  0.70343  0.18899  0.33132  1.0000
  H   H89       1.0  0.81527  0.30161  0.33084  1.0000
  H   H90       1.0  0.70435  0.29898  0.37894  1.0000
  C   C169      1.0  0.22529  0.43924  0.32880  1.0000
  C   C170      1.0  0.19952  0.41658  0.40172  1.0000
  C   C171      1.0  0.17780  0.37286  0.40135  1.0000
  C   C172      1.0  0.18177  0.35076  0.32853  1.0000
  N   N25       1.0  0.15417  0.35310  0.47419  1.0000
  C   C173      1.0  0.15038  0.37275  0.54675  1.0000
  C   C174      1.0  0.17249  0.41582  0.54841  1.0000
  N   N26       1.0  0.19568  0.43579  0.47565  1.0000
  H   H91       1.0  0.13221  0.35634  0.59950  1.0000
  O   O13       1.0  0.16958  0.43721  0.61947  1.0000
  H   H92       1.0  0.23243  0.47205  0.64898  1.0000
  C   C175      1.0  0.56322  0.77954  0.32890  1.0000
  C   C176      1.0  0.58588  0.77643  0.40183  1.0000
  C   C177      1.0  0.62961  0.79845  0.40146  1.0000
  C   C178      1.0  0.65170  0.82453  0.32864  1.0000
  N   N27       1.0  0.64937  0.79458  0.47430  1.0000
  C   C179      1.0  0.62972  0.77112  0.54683  1.0000
  C   C180      1.0  0.58666  0.75016  0.54850  1.0000
  N   N28       1.0  0.56667  0.75338  0.47575  1.0000
  H   H93       1.0  0.64614  0.76941  0.59963  1.0000
  O   O14       1.0  0.56527  0.72587  0.61958  1.0000
  H   H94       1.0  0.53043  0.75389  0.64908  1.0000
  C   C181      1.0  0.22284  0.77717  0.32872  1.0000
  C   C182      1.0  0.22598  0.80294  0.40167  1.0000
  C   C183      1.0  0.20397  0.82466  0.40136  1.0000
  C   C184      1.0  0.17789  0.82069  0.32857  1.0000
  N   N29       1.0  0.20786  0.84828  0.47422  1.0000
  C   C185      1.0  0.23132  0.85207  0.54674  1.0000
  C   C186      1.0  0.25227  0.82996  0.54834  1.0000
  N   N30       1.0  0.24903  0.80676  0.47557  1.0000
  H   H95       1.0  0.23307  0.87021  0.59954  1.0000
  O   O15       1.0  0.27657  0.83284  0.61940  1.0000
  H   H96       1.0  0.24849  0.76997  0.64890  1.0000
  C   C187      1.0  0.78228  0.55806  0.32876  1.0000
  C   C188      1.0  0.80805  0.58071  0.40169  1.0000
  C   C189      1.0  0.82977  0.62443  0.40134  1.0000
  C   C190      1.0  0.82580  0.64654  0.32854  1.0000
  N   N31       1.0  0.85340  0.64418  0.47419  1.0000
  C   C191      1.0  0.85719  0.62452  0.54672  1.0000
  C   C192      1.0  0.83508  0.58146  0.54836  1.0000
  N   N32       1.0  0.81188  0.56148  0.47559  1.0000
  H   H97       1.0  0.87536  0.64093  0.59949  1.0000
  O   O16       1.0  0.83799  0.56005  0.61941  1.0000
  H   H98       1.0  0.77514  0.52526  0.64899  1.0000
  C   C193      1.0  0.44439  0.21773  0.32860  1.0000
  C   C194      1.0  0.42176  0.22087  0.40154  1.0000
  C   C195      1.0  0.37803  0.19888  0.40121  1.0000
  C   C196      1.0  0.35591  0.17280  0.32842  1.0000
  N   N33       1.0  0.35830  0.20277  0.47407  1.0000
  C   C197      1.0  0.37796  0.22621  0.54660  1.0000
  C   C198      1.0  0.42103  0.24716  0.54822  1.0000
  N   N34       1.0  0.44099  0.24392  0.47544  1.0000
  H   H99       1.0  0.36157  0.22798  0.59938  1.0000
  O   O17       1.0  0.44244  0.27147  0.61926  1.0000
  H   H100      1.0  0.47723  0.24340  0.64881  1.0000
  C   C199      1.0  0.78469  0.22014  0.32868  1.0000
  C   C200      1.0  0.78157  0.19437  0.40162  1.0000
  C   C201      1.0  0.80358  0.17266  0.40129  1.0000
  C   C202      1.0  0.82966  0.17664  0.32850  1.0000
  N   N35       1.0  0.79969  0.14903  0.47414  1.0000
  C   C203      1.0  0.77623  0.14522  0.54665  1.0000
  C   C204      1.0  0.75528  0.16734  0.54829  1.0000
  N   N36       1.0  0.75851  0.19054  0.47553  1.0000
  H   H101      1.0  0.77450  0.12709  0.59946  1.0000
  O   O18       1.0  0.73098  0.16444  0.61935  1.0000
  H   H102      1.0  0.75900  0.22730  0.64884  1.0000
  C   C205      1.0  0.20898  0.22381  0.38716  1.0000
  C   C206      1.0  0.23023  0.20183  0.38769  1.0000
  H   H103      1.0  0.24954  0.20619  0.44032  1.0000
  H   H104      1.0  0.21357  0.24334  0.43945  1.0000
  C   C207      1.0  0.19551  0.13142  0.63832  1.0000
  H   H105      1.0  0.18954  0.10890  0.58584  1.0000
  H   H106      1.0  0.19681  0.15828  0.60688  1.0000
  C   C208      1.0  0.77866  0.97869  0.38724  1.0000
  C   C209      1.0  0.80064  0.02193  0.38776  1.0000
  H   H107      1.0  0.79629  0.03688  0.44039  1.0000
  H   H108      1.0  0.75912  0.96377  0.43952  1.0000
  C   C210      1.0  0.87104  0.05762  0.63835  1.0000
  H   H109      1.0  0.89358  0.07416  0.58587  1.0000
  H   H110      1.0  0.84418  0.03206  0.60688  1.0000
  C   C211      1.0  0.02374  0.79350  0.38724  1.0000
  C   C212      1.0  0.98050  0.77223  0.38777  1.0000
  H   H111      1.0  0.96556  0.75294  0.44040  1.0000
  H   H112      1.0  0.03867  0.78891  0.43955  1.0000
  C   C213      1.0  0.94482  0.80694  0.63834  1.0000
  H   H113      1.0  0.92827  0.81292  0.58586  1.0000
  H   H114      1.0  0.97038  0.80564  0.60688  1.0000
  C   C214      1.0  0.79861  0.77351  0.38722  1.0000
  C   C215      1.0  0.77737  0.79550  0.38778  1.0000
  H   H115      1.0  0.75809  0.79116  0.44043  1.0000
  H   H116      1.0  0.79402  0.75398  0.43951  1.0000
  C   C216      1.0  0.81204  0.86589  0.63837  1.0000
  H   H117      1.0  0.81802  0.88841  0.58588  1.0000
  H   H118      1.0  0.81073  0.83902  0.60692  1.0000
  C   C217      1.0  0.22894  0.01865  0.38720  1.0000
  C   C218      1.0  0.20694  0.97541  0.38778  1.0000
  H   H119      1.0  0.21130  0.96047  0.44042  1.0000
  H   H120      1.0  0.24847  0.03358  0.43948  1.0000
  C   C219      1.0  0.13653  0.93968  0.63840  1.0000
  H   H121      1.0  0.11401  0.92313  0.58592  1.0000
  H   H122      1.0  0.16341  0.96523  0.60694  1.0000
  C   C220      1.0  0.98382  0.20382  0.38719  1.0000
  C   C221      1.0  0.02706  0.22508  0.38773  1.0000
  H   H123      1.0  0.04200  0.24438  0.44035  1.0000
  H   H124      1.0  0.96889  0.20843  0.43947  1.0000
  C   C222      1.0  0.06276  0.19036  0.63833  1.0000
  H   H125      1.0  0.07931  0.18437  0.58586  1.0000
  H   H126      1.0  0.03721  0.19166  0.60686  1.0000
  C   C223      1.0  0.23603  0.59559  0.44559  1.0000
  C   C224      1.0  0.23573  0.63264  0.44517  1.0000
  H   H127      1.0  0.24857  0.65175  0.49913  1.0000
  H   H128      1.0  0.24873  0.58955  0.50028  1.0000
  H   H129      1.0  0.20373  0.66425  0.62397  1.0000
  C   C225      1.0  0.40692  0.63400  0.44547  1.0000
  C   C226      1.0  0.36985  0.59667  0.44521  1.0000
  H   H130      1.0  0.35077  0.59042  0.49922  1.0000
  H   H131      1.0  0.41302  0.65277  0.50013  1.0000
  H   H132      1.0  0.33803  0.53289  0.62396  1.0000
  C   C227      1.0  0.36837  0.76640  0.44512  1.0000
  C   C228      1.0  0.40566  0.76659  0.44477  1.0000
  H   H133      1.0  0.41187  0.75379  0.49890  1.0000
  H   H134      1.0  0.34960  0.75375  0.49981  1.0000
  H   H135      1.0  0.46948  0.79842  0.62373  1.0000
  C   C229      1.0  0.77146  0.40171  0.44549  1.0000
  C   C230      1.0  0.77176  0.36466  0.44530  1.0000
  H   H136      1.0  0.75895  0.34563  0.49939  1.0000
  H   H137      1.0  0.75892  0.40792  0.50022  1.0000
  H   H138      1.0  0.80390  0.33297  0.62405  1.0000
  C   C231      1.0  0.60069  0.36325  0.44567  1.0000
  C   C232      1.0  0.63772  0.40061  0.44531  1.0000
  H   H139      1.0  0.65681  0.40688  0.49930  1.0000
  H   H140      1.0  0.59464  0.34448  0.50032  1.0000
  H   H141      1.0  0.66945  0.46437  0.62415  1.0000
  C   C233      1.0  0.63911  0.23081  0.44540  1.0000
  C   C234      1.0  0.60176  0.23051  0.44498  1.0000
  H   H142      1.0  0.59547  0.24330  0.49901  1.0000
  H   H143      1.0  0.65785  0.24348  0.50010  1.0000
  H   H144      1.0  0.53811  0.19860  0.62377  1.0000
