data_image0
_chemical_formula_structural       C2H2C3NC2NC4NC4NC35H23C21H18C16H16N12C18H17C3NC3NC2NC5NC34H24C3NC3NC5NC5NC36H26C4HC2H3OC4HC2H3OC4HC2H3OC4HC2H3OC4HC2H3OC4HC2H3O
_chemical_formula_sum              "C240 H150 N24 O6"
_cell_length_a       58.564
_cell_length_b       58.5641
_cell_length_c       14.9727
_cell_angle_alpha    89.7732
_cell_angle_beta     90.2268
_cell_angle_gamma    120

_space_group_name_H-M_alt    "P 1"
_space_group_IT_number       1

loop_
  _space_group_symop_operation_xyz
  'x, y, z'

loop_
  _atom_site_type_symbol
  _atom_site_label
  _atom_site_symmetry_multiplicity
  _atom_site_fract_x
  _atom_site_fract_y
  _atom_site_fract_z
  _atom_site_occupancy
  C   C1        1.0  0.01103  0.50419  0.32272  1.0000
  C   C2        1.0  0.01177  0.60295  0.32123  1.0000
  H   H1        1.0  0.00797  0.46564  0.31825  1.0000
  H   H2        1.0  0.00930  0.63878  0.31647  1.0000
  C   C3        1.0  0.01947  0.48571  0.31959  1.0000
  C   C4        1.0  0.04670  0.49917  0.31864  1.0000
  C   C5        1.0  0.05550  0.52618  0.32139  1.0000
  N   N1        1.0  0.03337  0.52808  0.32329  1.0000
  C   C6        1.0  0.98425  0.49797  0.32512  1.0000
  C   C7        1.0  0.97576  0.51683  0.32567  1.0000
  N   N2        1.0  0.99079  0.54338  0.32252  1.0000
  C   C8        1.0  0.97603  0.55522  0.32429  1.0000
  C   C9        1.0  0.94981  0.53491  0.32863  1.0000
  C   C10       1.0  0.94964  0.51127  0.32964  1.0000
  C   C11       1.0  0.98487  0.58264  0.32243  1.0000
  N   N3        1.0  0.03390  0.60104  0.32320  1.0000
  C   C12       1.0  0.05624  0.62493  0.32271  1.0000
  C   C13       1.0  0.04780  0.64341  0.31952  1.0000
  C   C14       1.0  0.02057  0.62996  0.31843  1.0000
  C   C15       1.0  0.08302  0.63115  0.32525  1.0000
  N   N4        1.0  0.07648  0.58574  0.32274  1.0000
  C   C16       1.0  0.09124  0.57391  0.32448  1.0000
  C   C17       1.0  0.11748  0.59422  0.32871  1.0000
  C   C18       1.0  0.11765  0.61786  0.32974  1.0000
  C   C19       1.0  0.08240  0.54649  0.32266  1.0000
  C   C20       1.0  0.10208  0.53895  0.32314  1.0000
  C   C21       1.0  0.11440  0.53840  0.24296  1.0000
  C   C22       1.0  0.13516  0.53283  0.24443  1.0000
  C   C23       1.0  0.14412  0.52757  0.32579  1.0000
  C   C24       1.0  0.16624  0.52353  0.32821  1.0000
  C   C25       1.0  0.21207  0.53766  0.28762  1.0000
  C   C26       1.0  0.18955  0.54033  0.28029  1.0000
  C   C27       1.0  0.10291  0.65824  0.32910  1.0000
  C   C28       1.0  0.11599  0.67208  0.25090  1.0000
  C   C29       1.0  0.13685  0.69832  0.25601  1.0000
  C   C30       1.0  0.14528  0.71145  0.33920  1.0000
  C   C31       1.0  0.16749  0.73755  0.34502  1.0000
  C   C32       1.0  0.17144  0.75745  0.28270  1.0000
  C   C33       1.0  0.19374  0.78289  0.28779  1.0000
  C   C34       1.0  0.21281  0.78951  0.35606  1.0000
  C   C35       1.0  0.96522  0.59020  0.32300  1.0000
  C   C36       1.0  0.92362  0.60221  0.32573  1.0000
  C   C37       1.0  0.93218  0.59669  0.24442  1.0000
  C   C38       1.0  0.95272  0.59081  0.24292  1.0000
  C   C39       1.0  0.90182  0.60676  0.32815  1.0000
  C   C40       1.0  0.87826  0.59021  0.28083  1.0000
  C   C41       1.0  0.85609  0.59345  0.28802  1.0000
  C   C42       1.0  0.85665  0.61326  0.34323  1.0000
  C   C43       1.0  0.96434  0.47087  0.32883  1.0000
  C   C44       1.0  0.95090  0.45730  0.25073  1.0000
  C   C45       1.0  0.92985  0.43115  0.25585  1.0000
  C   C46       1.0  0.92156  0.41787  0.33898  1.0000
  C   C47       1.0  0.89905  0.39195  0.34493  1.0000
  C   C48       1.0  0.85306  0.34045  0.35594  1.0000
  C   C49       1.0  0.87184  0.34686  0.28718  1.0000
  C   C50       1.0  0.89447  0.37208  0.28209  1.0000
  H   H3        1.0  0.86941  0.33307  0.24062  1.0000
  H   H4        1.0  0.90776  0.37569  0.23220  1.0000
  H   H5        1.0  0.91991  0.42231  0.19834  1.0000
  H   H6        1.0  0.95587  0.46660  0.19000  1.0000
  H   H7        1.0  0.05798  0.49036  0.31676  1.0000
  H   H8        1.0  0.03350  0.54450  0.32719  1.0000
  H   H9        1.0  0.03378  0.58461  0.32716  1.0000
  H   H10       1.0  0.93299  0.49315  0.33307  1.0000
  H   H11       1.0  0.93332  0.53667  0.33138  1.0000
  H   H12       1.0  0.95820  0.58656  0.18321  1.0000
  H   H13       1.0  0.92347  0.59686  0.18522  1.0000
  H   H14       1.0  0.05930  0.66349  0.31821  1.0000
  H   H15       1.0  0.13429  0.63598  0.33307  1.0000
  H   H16       1.0  0.11088  0.66292  0.19007  1.0000
  H   H17       1.0  0.14651  0.70739  0.19837  1.0000
  H   H18       1.0  0.19570  0.79670  0.24165  1.0000
  H   H19       1.0  0.15791  0.75369  0.23323  1.0000
  H   H20       1.0  0.19080  0.55553  0.24260  1.0000
  H   H21       1.0  0.22884  0.55091  0.25473  1.0000
  H   H22       1.0  0.14377  0.53275  0.18518  1.0000
  H   H23       1.0  0.10869  0.54255  0.18323  1.0000
  H   H24       1.0  0.87659  0.57484  0.24353  1.0000
  H   H25       1.0  0.83911  0.58039  0.25557  1.0000
  C   C51       1.0  0.54473  0.51986  0.32700  1.0000
  C   C52       1.0  0.56504  0.51392  0.33119  1.0000
  C   C53       1.0  0.58868  0.53739  0.33223  1.0000
  C   C54       1.0  0.56158  0.67521  0.24573  1.0000
  C   C55       1.0  0.56714  0.70153  0.24716  1.0000
  C   C56       1.0  0.56229  0.77352  0.29024  1.0000
  C   C57       1.0  0.55962  0.74833  0.28302  1.0000
  C   C58       1.0  0.42794  0.54310  0.25307  1.0000
  C   C59       1.0  0.40169  0.53771  0.25788  1.0000
  C   C60       1.0  0.34254  0.51309  0.28398  1.0000
  C   C61       1.0  0.31709  0.50994  0.28872  1.0000
  C   C62       1.0  0.31042  0.52229  0.35668  1.0000
  C   C63       1.0  0.50326  0.43470  0.24714  1.0000
  C   C64       1.0  0.50914  0.46113  0.24567  1.0000
  C   C65       1.0  0.50977  0.38721  0.28356  1.0000
  C   C66       1.0  0.50655  0.36179  0.29073  1.0000
  C   C67       1.0  0.64260  0.59279  0.25292  1.0000
  C   C68       1.0  0.66875  0.59786  0.25775  1.0000
  C   C69       1.0  0.75955  0.61160  0.35656  1.0000
  C   C70       1.0  0.75307  0.62413  0.28809  1.0000
  C   C71       1.0  0.72785  0.62156  0.28339  1.0000
  H   H26       1.0  0.76682  0.63561  0.24144  1.0000
  H   H27       1.0  0.72419  0.63135  0.23367  1.0000
  H   H28       1.0  0.67756  0.59693  0.20010  1.0000
  H   H29       1.0  0.63326  0.58860  0.19226  1.0000
  H   H30       1.0  0.60680  0.53886  0.33562  1.0000
  H   H31       1.0  0.51342  0.47099  0.18599  1.0000
  H   H32       1.0  0.50311  0.42595  0.18794  1.0000
  H   H33       1.0  0.46116  0.46958  0.31949  1.0000
  H   H34       1.0  0.43713  0.54722  0.19231  1.0000
  H   H35       1.0  0.39265  0.53836  0.20008  1.0000
  H   H36       1.0  0.30332  0.49815  0.24253  1.0000
  H   H37       1.0  0.34634  0.50339  0.23475  1.0000
  H   H38       1.0  0.54442  0.73445  0.24533  1.0000
  H   H39       1.0  0.54901  0.77708  0.25749  1.0000
  H   H40       1.0  0.56721  0.71033  0.18790  1.0000
  H   H41       1.0  0.55740  0.66545  0.18603  1.0000
  H   H42       1.0  0.52513  0.40099  0.24626  1.0000
  H   H43       1.0  0.51961  0.35794  0.25824  1.0000
  C   C72       1.0  0.42489  0.98568  0.24688  1.0000
  C   C73       1.0  0.39856  0.96491  0.24777  1.0000
  C   C74       1.0  0.32652  0.88794  0.28923  1.0000
  C   C75       1.0  0.35171  0.91047  0.28253  1.0000
  C   C76       1.0  0.55689  0.98404  0.25571  1.0000
  C   C77       1.0  0.56231  0.96319  0.26054  1.0000
  C   C78       1.0  0.58690  0.92859  0.28678  1.0000
  C   C79       1.0  0.59003  0.90628  0.29150  1.0000
  C   C80       1.0  0.66512  0.16766  0.24773  1.0000
  C   C81       1.0  0.63869  0.14712  0.24682  1.0000
  C   C82       1.0  0.71269  0.22162  0.28294  1.0000
  C   C83       1.0  0.73812  0.24381  0.28958  1.0000
  C   C84       1.0  0.50717  0.14901  0.25532  1.0000
  C   C85       1.0  0.50207  0.17005  0.26017  1.0000
  C   C86       1.0  0.47583  0.22806  0.29054  1.0000
  C   C87       1.0  0.47840  0.20542  0.28581  1.0000
  H   H44       1.0  0.46437  0.23044  0.24384  1.0000
  H   H45       1.0  0.46863  0.19209  0.23604  1.0000
  H   H46       1.0  0.50305  0.17996  0.20256  1.0000
  H   H47       1.0  0.51137  0.14400  0.19465  1.0000
  H   H48       1.0  0.62873  0.14156  0.18732  1.0000
  H   H49       1.0  0.67378  0.17629  0.18832  1.0000
  H   H50       1.0  0.55279  0.98923  0.19493  1.0000
  H   H51       1.0  0.56164  0.95360  0.20278  1.0000
  H   H52       1.0  0.60182  0.90438  0.24533  1.0000
  H   H53       1.0  0.59661  0.94219  0.23755  1.0000
  H   H54       1.0  0.36565  0.90927  0.24506  1.0000
  H   H55       1.0  0.32299  0.87120  0.25624  1.0000
  H   H56       1.0  0.38985  0.95638  0.18832  1.0000
  H   H57       1.0  0.43474  0.99145  0.18735  1.0000
  H   H58       1.0  0.69883  0.22325  0.24602  1.0000
  H   H59       1.0  0.74189  0.26076  0.25710  1.0000
  N   N5        1.0  0.24931  0.51779  0.28118  1.0000
  N   N6        1.0  0.27210  0.51877  0.28322  1.0000
  N   N7        1.0  0.58216  0.83065  0.28388  1.0000
  N   N8        1.0  0.58119  0.85246  0.28593  1.0000
  N   N9        1.0  0.26942  0.85065  0.28167  1.0000
  N   N10       1.0  0.24760  0.82786  0.28326  1.0000
  N   N11       1.0  0.81975  0.61444  0.28093  1.0000
  N   N12       1.0  0.79724  0.61405  0.28300  1.0000
  N   N13       1.0  0.48559  0.30448  0.28347  1.0000
  N   N14       1.0  0.48598  0.28235  0.28551  1.0000
  N   N15       1.0  0.79541  0.28020  0.28139  1.0000
  N   N16       1.0  0.81754  0.30271  0.28302  1.0000
  C   C88       1.0  0.09152  0.61230  0.32583  1.0000
  C   C89       1.0  0.13129  0.52775  0.40565  1.0000
  C   C90       1.0  0.11063  0.53346  0.40452  1.0000
  C   C91       1.0  0.16605  0.50341  0.38155  1.0000
  C   C92       1.0  0.18854  0.50069  0.38868  1.0000
  C   C93       1.0  0.21211  0.51814  0.34343  1.0000
  C   C94       1.0  0.13163  0.69747  0.41697  1.0000
  C   C95       1.0  0.11079  0.67125  0.41218  1.0000
  C   C96       1.0  0.20893  0.76957  0.41804  1.0000
  C   C97       1.0  0.18677  0.74413  0.41253  1.0000
  C   C98       1.0  0.95703  0.59591  0.40433  1.0000
  C   C99       1.0  0.93658  0.60192  0.40550  1.0000
  C   C100      1.0  0.88046  0.63045  0.38789  1.0000
  C   C101      1.0  0.90262  0.62717  0.38082  1.0000
  C   C102      1.0  0.95664  0.45769  0.41180  1.0000
  C   C103      1.0  0.93559  0.43156  0.41661  1.0000
  C   C104      1.0  0.88006  0.38557  0.41295  1.0000
  C   C105      1.0  0.85758  0.36035  0.41848  1.0000
  H   H60       1.0  0.84406  0.35705  0.46720  1.0000
  H   H61       1.0  0.88199  0.39952  0.45806  1.0000
  H   H62       1.0  0.93050  0.42267  0.47797  1.0000
  H   H63       1.0  0.96594  0.46718  0.46946  1.0000
  H   H64       1.0  0.96552  0.59519  0.46339  1.0000
  H   H65       1.0  0.93057  0.60510  0.46596  1.0000
  H   H66       1.0  0.13398  0.59246  0.33145  1.0000
  H   H67       1.0  0.10172  0.66158  0.46989  1.0000
  H   H68       1.0  0.13682  0.70624  0.47838  1.0000
  H   H69       1.0  0.18530  0.73020  0.45724  1.0000
  H   H70       1.0  0.22267  0.77304  0.46642  1.0000
  H   H71       1.0  0.10230  0.53418  0.46366  1.0000
  H   H72       1.0  0.13761  0.52479  0.46616  1.0000
  H   H73       1.0  0.18759  0.48590  0.42794  1.0000
  H   H74       1.0  0.14948  0.49056  0.41617  1.0000
  H   H75       1.0  0.91939  0.63986  0.41496  1.0000
  H   H76       1.0  0.88186  0.64544  0.42664  1.0000
  C   C106      1.0  0.61425  0.63281  0.32229  1.0000
  C   C107      1.0  0.60079  0.64658  0.32142  1.0000
  C   C108      1.0  0.57379  0.62838  0.32422  1.0000
  N   N17       1.0  0.57189  0.60434  0.32610  1.0000
  C   C109      1.0  0.59577  0.60588  0.32542  1.0000
  C   C110      1.0  0.60199  0.58532  0.32774  1.0000
  C   C111      1.0  0.58312  0.55796  0.32833  1.0000
  N   N18       1.0  0.55657  0.54645  0.32527  1.0000
  C   C112      1.0  0.51731  0.50128  0.32524  1.0000
  C   C113      1.0  0.49700  0.50787  0.32414  1.0000
  N   N19       1.0  0.49891  0.53191  0.32608  1.0000
  C   C114      1.0  0.47503  0.53036  0.32551  1.0000
  C   C115      1.0  0.45654  0.50345  0.32245  1.0000
  C   C116      1.0  0.46999  0.48968  0.32144  1.0000
  C   C117      1.0  0.46881  0.55092  0.32787  1.0000
  C   C118      1.0  0.48767  0.57828  0.32849  1.0000
  N   N20       1.0  0.51422  0.58979  0.32553  1.0000
  C   C119      1.0  0.52606  0.61638  0.32726  1.0000
  C   C120      1.0  0.50575  0.62231  0.33137  1.0000
  C   C121      1.0  0.48211  0.59884  0.33229  1.0000
  C   C122      1.0  0.55348  0.63497  0.32547  1.0000
  C   C123      1.0  0.56102  0.66217  0.32593  1.0000
  C   C124      1.0  0.57241  0.71559  0.32851  1.0000
  C   C125      1.0  0.57221  0.70243  0.40839  1.0000
  C   C126      1.0  0.56653  0.67608  0.40729  1.0000
  C   C127      1.0  0.57644  0.74175  0.33089  1.0000
  C   C128      1.0  0.59655  0.76158  0.38419  1.0000
  C   C129      1.0  0.59927  0.78678  0.39133  1.0000
  C   C130      1.0  0.58179  0.79296  0.34611  1.0000
  C   C131      1.0  0.44171  0.54372  0.33146  1.0000
  C   C132      1.0  0.38850  0.53287  0.34093  1.0000
  C   C133      1.0  0.40242  0.53308  0.41889  1.0000
  C   C134      1.0  0.42865  0.53846  0.41441  1.0000
  C   C135      1.0  0.36239  0.52895  0.34641  1.0000
  C   C136      1.0  0.33030  0.53826  0.41875  1.0000
  C   C137      1.0  0.35575  0.54156  0.41360  1.0000
  C   C138      1.0  0.50974  0.47406  0.32577  1.0000
  C   C139      1.0  0.50401  0.45998  0.40707  1.0000
  C   C140      1.0  0.49801  0.43352  0.40821  1.0000
  C   C141      1.0  0.49772  0.42044  0.32843  1.0000
  C   C142      1.0  0.49320  0.39410  0.33083  1.0000
  C   C143      1.0  0.48672  0.34240  0.34584  1.0000
  C   C144      1.0  0.46951  0.34892  0.39046  1.0000
  C   C145      1.0  0.47278  0.37436  0.38345  1.0000
  C   C146      1.0  0.62909  0.59249  0.33118  1.0000
  C   C147      1.0  0.64234  0.59779  0.41403  1.0000
  C   C148      1.0  0.68210  0.60269  0.34074  1.0000
  C   C149      1.0  0.66846  0.60285  0.41855  1.0000
  C   C150      1.0  0.70803  0.60611  0.34635  1.0000
  C   C151      1.0  0.71447  0.59334  0.41412  1.0000
  C   C152      1.0  0.73970  0.59607  0.41925  1.0000
  H   H77       1.0  0.74304  0.58574  0.46780  1.0000
  H   H78       1.0  0.70057  0.58121  0.45931  1.0000
  H   H79       1.0  0.67740  0.60651  0.47982  1.0000
  H   H80       1.0  0.63288  0.59744  0.47182  1.0000
  H   H81       1.0  0.63433  0.64138  0.32089  1.0000
  H   H82       1.0  0.60961  0.66668  0.31951  1.0000
  H   H83       1.0  0.55546  0.58804  0.33002  1.0000
  H   H84       1.0  0.51534  0.54821  0.32967  1.0000
  H   H85       1.0  0.56328  0.49567  0.33405  1.0000
  H   H86       1.0  0.50474  0.46907  0.46616  1.0000
  H   H87       1.0  0.49483  0.42421  0.46866  1.0000
  H   H88       1.0  0.43646  0.49487  0.32111  1.0000
  H   H89       1.0  0.50751  0.64056  0.33402  1.0000
  H   H90       1.0  0.46398  0.59736  0.33549  1.0000
  H   H91       1.0  0.43828  0.53897  0.47224  1.0000
  H   H92       1.0  0.39361  0.52940  0.48022  1.0000
  H   H93       1.0  0.36964  0.55394  0.45844  1.0000
  H   H94       1.0  0.32679  0.54844  0.46696  1.0000
  H   H95       1.0  0.56578  0.66690  0.46645  1.0000
  H   H96       1.0  0.57519  0.71160  0.46887  1.0000
  H   H97       1.0  0.61405  0.80053  0.43058  1.0000
  H   H98       1.0  0.60942  0.75781  0.41878  1.0000
  H   H99       1.0  0.46007  0.37836  0.41756  1.0000
  H   H100      1.0  0.45452  0.33523  0.42918  1.0000
  C   C153      1.0  0.46715  0.08049  0.32465  1.0000
  C   C154      1.0  0.45338  0.05326  0.32361  1.0000
  C   C155      1.0  0.47158  0.04445  0.32634  1.0000
  N   N21       1.0  0.49562  0.06659  0.32841  1.0000
  C   C156      1.0  0.49407  0.08893  0.32778  1.0000
  C   C157      1.0  0.51464  0.11571  0.33008  1.0000
  C   C158      1.0  0.54199  0.12420  0.33058  1.0000
  N   N22       1.0  0.55350  0.10916  0.32747  1.0000
  C   C159      1.0  0.58010  0.12391  0.32907  1.0000
  C   C160      1.0  0.58604  0.15015  0.33323  1.0000
  C   C161      1.0  0.56257  0.15032  0.33438  1.0000
  C   C162      1.0  0.59868  0.11507  0.32718  1.0000
  C   C163      1.0  0.59208  0.08817  0.32618  1.0000
  N   N23       1.0  0.56805  0.06604  0.32839  1.0000
  C   C164      1.0  0.56960  0.04371  0.32790  1.0000
  C   C165      1.0  0.59651  0.05214  0.32459  1.0000
  C   C166      1.0  0.61028  0.07937  0.32336  1.0000
  C   C167      1.0  0.54904  0.01692  0.33046  1.0000
  C   C168      1.0  0.52169  0.00843  0.33096  1.0000
  N   N24       1.0  0.51017  0.02347  0.32787  1.0000
  C   C169      1.0  0.48358  0.00871  0.32936  1.0000
  C   C170      1.0  0.47765  0.98247  0.33348  1.0000
  C   C171      1.0  0.50113  0.98230  0.33463  1.0000
  C   C172      1.0  0.46500  0.01756  0.32739  1.0000
  C   C173      1.0  0.43779  0.99788  0.32736  1.0000
  C   C174      1.0  0.38437  0.95584  0.32885  1.0000
  C   C175      1.0  0.39740  0.96854  0.40902  1.0000
  C   C176      1.0  0.42376  0.98922  0.40845  1.0000
  C   C177      1.0  0.35821  0.93372  0.33065  1.0000
  C   C178      1.0  0.33829  0.93383  0.38364  1.0000
  C   C179      1.0  0.31308  0.91132  0.39021  1.0000
  C   C180      1.0  0.30697  0.88782  0.34471  1.0000
  C   C181      1.0  0.55625  0.99703  0.33408  1.0000
  C   C182      1.0  0.56711  0.95466  0.34363  1.0000
  C   C183      1.0  0.56687  0.96820  0.42158  1.0000
  C   C184      1.0  0.56148  0.98905  0.41706  1.0000
  C   C185      1.0  0.57102  0.93244  0.34914  1.0000
  C   C186      1.0  0.57766  0.88710  0.35942  1.0000
  C   C187      1.0  0.56170  0.89090  0.42150  1.0000
  C   C188      1.0  0.55840  0.91307  0.41633  1.0000
  C   C189      1.0  0.62589  0.13473  0.32720  1.0000
  C   C190      1.0  0.64010  0.14301  0.40823  1.0000
  C   C191      1.0  0.66656  0.16348  0.40881  1.0000
  C   C192      1.0  0.67951  0.17632  0.32873  1.0000
  C   C193      1.0  0.70586  0.19812  0.33054  1.0000
  C   C194      1.0  0.75758  0.24333  0.34445  1.0000
  C   C195      1.0  0.75114  0.21957  0.38934  1.0000
  C   C196      1.0  0.72569  0.19740  0.38285  1.0000
  C   C197      1.0  0.50746  0.13562  0.33356  1.0000
  C   C198      1.0  0.50215  0.14339  0.41641  1.0000
  C   C199      1.0  0.49725  0.17841  0.34318  1.0000
  C   C200      1.0  0.49707  0.16444  0.42096  1.0000
  C   C201      1.0  0.49383  0.20091  0.34882  1.0000
  C   C202      1.0  0.50656  0.21996  0.41669  1.0000
  C   C203      1.0  0.50386  0.24246  0.42179  1.0000
  C   C204      1.0  0.48834  0.24692  0.35907  1.0000
  H   H101      1.0  0.51415  0.25601  0.47046  1.0000
  H   H102      1.0  0.51867  0.21808  0.46192  1.0000
  H   H103      1.0  0.49341  0.16958  0.48225  1.0000
  H   H104      1.0  0.50248  0.13414  0.47418  1.0000
  H   H105      1.0  0.45857  0.09199  0.32323  1.0000
  H   H106      1.0  0.43328  0.04199  0.32159  1.0000
  H   H107      1.0  0.51192  0.06646  0.33202  1.0000
  H   H108      1.0  0.55176  0.06617  0.33239  1.0000
  H   H109      1.0  0.56110  0.16697  0.33783  1.0000
  H   H110      1.0  0.60429  0.16663  0.33602  1.0000
  H   H111      1.0  0.63111  0.13462  0.46751  1.0000
  H   H112      1.0  0.67598  0.16956  0.46907  1.0000
  H   H113      1.0  0.63037  0.09064  0.32120  1.0000
  H   H114      1.0  0.60509  0.04064  0.32320  1.0000
  H   H115      1.0  0.45940  0.96597  0.33593  1.0000
  H   H116      1.0  0.50261  0.96565  0.33783  1.0000
  H   H117      1.0  0.56096  0.99805  0.47488  1.0000
  H   H118      1.0  0.57053  0.96294  0.48292  1.0000
  H   H119      1.0  0.54599  0.91447  0.46106  1.0000
  H   H120      1.0  0.55146  0.87708  0.46958  1.0000
  H   H121      1.0  0.43284  0.99747  0.46779  1.0000
  H   H122      1.0  0.38814  0.96217  0.46932  1.0000
  H   H123      1.0  0.29926  0.91222  0.42925  1.0000
  H   H124      1.0  0.34201  0.95035  0.41843  1.0000
  H   H125      1.0  0.72174  0.18068  0.41718  1.0000
  H   H126      1.0  0.76488  0.21823  0.42789  1.0000
  C   C205      1.0  0.28484  0.51955  0.36022  1.0000
  C   C206      1.0  0.27207  0.51888  0.44089  1.0000
  C   C207      1.0  0.24724  0.51752  0.43980  1.0000
  C   C208      1.0  0.23574  0.51716  0.35558  1.0000
  H   H127      1.0  0.28091  0.51952  0.50069  1.0000
  C   C209      1.0  0.23591  0.51885  0.51945  1.0000
  C   C210      1.0  0.22754  0.49763  0.58412  1.0000
  H   H128      1.0  0.21723  0.47845  0.55120  1.0000
  H   H129      1.0  0.21399  0.49853  0.63200  1.0000
  H   H130      1.0  0.24446  0.49919  0.62053  1.0000
  O   O1        1.0  0.24505  0.54096  0.55111  1.0000
  C   C211      1.0  0.58038  0.86424  0.36294  1.0000
  C   C212      1.0  0.58102  0.85197  0.44360  1.0000
  C   C213      1.0  0.58240  0.82851  0.44252  1.0000
  C   C214      1.0  0.58275  0.81754  0.35828  1.0000
  H   H131      1.0  0.58037  0.86004  0.50339  1.0000
  C   C215      1.0  0.58103  0.81564  0.52223  1.0000
  C   C216      1.0  0.60236  0.82843  0.58639  1.0000
  H   H132      1.0  0.62150  0.83718  0.55322  1.0000
  H   H133      1.0  0.60141  0.81395  0.63465  1.0000
  H   H134      1.0  0.60095  0.84386  0.62242  1.0000
  O   O2        1.0  0.55883  0.80266  0.55316  1.0000
  C   C217      1.0  0.23565  0.81507  0.36002  1.0000
  C   C218      1.0  0.24775  0.82778  0.44095  1.0000
  C   C219      1.0  0.27122  0.85260  0.44034  1.0000
  C   C220      1.0  0.28237  0.86415  0.35634  1.0000
  H   H135      1.0  0.23954  0.81890  0.50057  1.0000
  C   C221      1.0  0.28388  0.86389  0.52031  1.0000
  C   C222      1.0  0.27111  0.87196  0.58558  1.0000
  H   H136      1.0  0.26199  0.88218  0.55324  1.0000
  H   H137      1.0  0.28565  0.88550  0.63348  1.0000
  H   H138      1.0  0.25597  0.85490  0.62184  1.0000
  O   O3        1.0  0.29720  0.85485  0.55045  1.0000
  C   C223      1.0  0.78487  0.61371  0.36002  1.0000
  C   C224      1.0  0.79771  0.61417  0.44067  1.0000
  C   C225      1.0  0.82224  0.61492  0.43954  1.0000
  C   C226      1.0  0.83336  0.61484  0.35532  1.0000
  H   H139      1.0  0.78914  0.61385  0.50048  1.0000
  C   C227      1.0  0.83360  0.61337  0.51924  1.0000
  C   C228      1.0  0.84257  0.63470  0.58333  1.0000
  H   H140      1.0  0.85314  0.65383  0.54987  1.0000
  H   H141      1.0  0.85605  0.63350  0.63119  1.0000
  H   H142      1.0  0.82592  0.63358  0.61981  1.0000
  O   O4        1.0  0.82410  0.59124  0.55150  1.0000
  C   C229      1.0  0.48625  0.27013  0.36253  1.0000
  C   C230      1.0  0.48571  0.28229  0.44319  1.0000
  C   C231      1.0  0.48500  0.30611  0.44209  1.0000
  C   C232      1.0  0.48514  0.31751  0.35787  1.0000
  H   H143      1.0  0.48597  0.27389  0.50299  1.0000
  C   C233      1.0  0.48645  0.31880  0.52185  1.0000
  C   C234      1.0  0.46537  0.30634  0.58663  1.0000
  H   H144      1.0  0.44614  0.29762  0.55377  1.0000
  H   H145      1.0  0.46658  0.32099  0.63424  1.0000
  H   H146      1.0  0.46676  0.29092  0.62329  1.0000
  O   O5        1.0  0.50876  0.33168  0.55253  1.0000
  C   C235      1.0  0.82986  0.31513  0.35982  1.0000
  C   C236      1.0  0.81780  0.30235  0.44071  1.0000
  C   C237      1.0  0.79398  0.27784  0.44005  1.0000
  C   C238      1.0  0.78248  0.26665  0.35604  1.0000
  H   H147      1.0  0.82629  0.31097  0.50035  1.0000
  C   C239      1.0  0.78141  0.26650  0.52004  1.0000
  C   C240      1.0  0.79398  0.25783  0.58467  1.0000
  H   H148      1.0  0.80267  0.24736  0.55171  1.0000
  H   H149      1.0  0.77941  0.24433  0.63254  1.0000
  H   H150      1.0  0.80945  0.27461  0.62104  1.0000
  O   O6        1.0  0.76857  0.27588  0.55088  1.0000
