data_image0
_chemical_formula_structural       C8H8C8H2N2O5C16H4C3H2C2H2C6H2C6H4N2O3C8H8C8H2N2O5C16H4C3H2C2H2C6H2C6H4N2O3C8H8C8H2N2O5C16H4C3H2C2H2C6H2C6H4N2O3C8H8C8H2N2O5C16H4C3H2C2H2C6H2C6H4N2O3
_chemical_formula_sum              "C196 H96 N16 O32"
_cell_length_a       33.8772
_cell_length_b       33.8772
_cell_length_c       14.9025
_cell_angle_alpha    90
_cell_angle_beta     90
_cell_angle_gamma    89.9983

_space_group_name_H-M_alt    "P 1"
_space_group_IT_number       1

loop_
  _space_group_symop_operation_xyz
  'x, y, z'

loop_
  _atom_site_type_symbol
  _atom_site_label
  _atom_site_symmetry_multiplicity
  _atom_site_fract_x
  _atom_site_fract_y
  _atom_site_fract_z
  _atom_site_occupancy
  C   C1        1.0  0.00437  0.48268  0.28420  1.0000
  C   C2        1.0  0.00464  0.02402  0.28480  1.0000
  C   C3        1.0  0.00605  0.10601  0.32371  1.0000
  C   C4        1.0  0.00559  0.09228  0.23387  1.0000
  C   C5        1.0  0.00475  0.05163  0.21430  1.0000
  C   C6        1.0  0.00338  0.45560  0.21281  1.0000
  C   C7        1.0  0.00235  0.41485  0.23090  1.0000
  C   C8        1.0  0.00243  0.40020  0.32015  1.0000
  H   H1        1.0  0.11168  0.00404  0.02760  1.0000
  H   H2        1.0  0.04259  0.00313  0.05691  1.0000
  H   H3        1.0  0.46475  0.50397  0.05554  1.0000
  H   H4        1.0  0.39564  0.50341  0.02299  1.0000
  H   H5        1.0  0.00572  0.11190  0.18162  1.0000
  H   H6        1.0  0.00440  0.04267  0.14927  1.0000
  H   H7        1.0  0.00303  0.46499  0.14816  1.0000
  H   H8        1.0  0.00184  0.39581  0.17757  1.0000
  C   C9        1.0  0.00737  0.14746  0.34069  1.0000
  C   C10       1.0  0.04007  0.17088  0.31344  1.0000
  C   C11       1.0  0.03813  0.21257  0.32147  1.0000
  C   C12       1.0  0.50404  0.23176  0.35443  1.0000
  C   C13       1.0  0.50103  0.27389  0.35142  1.0000
  C   C14       1.0  0.47278  0.29301  0.29589  1.0000
  C   C15       1.0  0.47290  0.33476  0.28906  1.0000
  C   C16       1.0  0.50058  0.35846  0.33556  1.0000
  H   H9        1.0  0.45269  0.34792  0.24765  1.0000
  H   H10       1.0  0.06141  0.22911  0.29895  1.0000
  N   N1        1.0  0.44614  0.27012  0.24423  1.0000
  N   N2        1.0  0.07408  0.15213  0.27815  1.0000
  O   O1        1.0  0.45121  0.27537  0.16153  1.0000
  O   O2        1.0  0.08094  0.16297  0.19903  1.0000
  O   O3        1.0  0.41088  0.27801  0.26332  1.0000
  O   O4        1.0  0.10401  0.15907  0.32536  1.0000
  O   O5        1.0  0.21724  0.46589  0.31777  1.0000
  C   C17       1.0  0.00484  0.46900  0.37276  1.0000
  C   C18       1.0  0.00476  0.03705  0.37389  1.0000
  C   C19       1.0  0.00509  0.07788  0.39413  1.0000
  C   C20       1.0  0.00422  0.42800  0.39139  1.0000
  C   C21       1.0  0.03857  0.00299  0.49900  1.0000
  C   C22       1.0  0.02488  0.00308  0.58754  1.0000
  C   C23       1.0  0.48355  0.50284  0.58684  1.0000
  C   C24       1.0  0.47058  0.50259  0.49775  1.0000
  C   C25       1.0  0.45587  0.50318  0.65715  1.0000
  C   C26       1.0  0.41523  0.50277  0.63735  1.0000
  C   C27       1.0  0.40143  0.50217  0.54747  1.0000
  C   C28       1.0  0.42978  0.50226  0.47736  1.0000
  C   C29       1.0  0.07955  0.00394  0.48042  1.0000
  C   C30       1.0  0.10749  0.00514  0.55157  1.0000
  C   C31       1.0  0.09273  0.00436  0.64080  1.0000
  C   C32       1.0  0.05197  0.00345  0.65890  1.0000
  H   H11       1.0  0.42099  0.50160  0.41172  1.0000
  H   H12       1.0  0.08870  0.00487  0.41506  1.0000
  H   H13       1.0  0.00549  0.08685  0.45967  1.0000
  H   H14       1.0  0.00379  0.41871  0.45669  1.0000
  C   C33       1.0  0.00479  0.00283  0.43584  1.0000
  C   C34       1.0  0.47212  0.20802  0.38310  1.0000
  C   C35       1.0  0.47384  0.16655  0.37688  1.0000
  H   H15       1.0  0.44684  0.22088  0.40675  1.0000
  H   H16       1.0  0.44952  0.15047  0.39504  1.0000
  C   C36       1.0  0.52793  0.33905  0.39199  1.0000
  C   C37       1.0  0.52839  0.29754  0.39904  1.0000
  H   H17       1.0  0.54905  0.35491  0.42534  1.0000
  H   H18       1.0  0.54942  0.28458  0.43862  1.0000
  C   C38       1.0  0.35983  0.00189  0.53017  1.0000
  C   C39       1.0  0.34073  0.03213  0.48008  1.0000
  C   C40       1.0  0.29888  0.03250  0.47366  1.0000
  C   C41       1.0  0.27558  0.50313  0.51507  1.0000
  C   C42       1.0  0.29481  0.47273  0.56270  1.0000
  C   C43       1.0  0.33620  0.47224  0.57030  1.0000
  H   H19       1.0  0.27874  0.45139  0.59484  1.0000
  H   H20       1.0  0.34898  0.45018  0.60721  1.0000
  C   C44       1.0  0.23361  0.50552  0.51592  1.0000
  C   C45       1.0  0.20954  0.48149  0.46036  1.0000
  C   C46       1.0  0.16785  0.48261  0.47052  1.0000
  C   C47       1.0  0.14932  0.50669  0.53585  1.0000
  C   C48       1.0  0.17401  0.53118  0.58866  1.0000
  C   C49       1.0  0.21531  0.53061  0.57909  1.0000
  H   H21       1.0  0.15104  0.46415  0.43188  1.0000
  H   H22       1.0  0.16212  0.54959  0.63591  1.0000
  H   H23       1.0  0.23201  0.54797  0.62062  1.0000
  H   H24       1.0  0.28530  0.05505  0.43995  1.0000
  N   N3        1.0  0.22782  0.45684  0.39592  1.0000
  N   N4        1.0  0.36360  0.06257  0.44083  1.0000
  O   O6        1.0  0.35914  0.06353  0.35714  1.0000
  O   O7        1.0  0.21986  0.42111  0.40933  1.0000
  O   O8        1.0  0.35498  0.09584  0.47252  1.0000
  C   C50       1.0  0.00437  0.98268  0.28420  1.0000
  C   C51       1.0  0.00464  0.52402  0.28480  1.0000
  C   C52       1.0  0.00605  0.60601  0.32371  1.0000
  C   C53       1.0  0.00559  0.59228  0.23387  1.0000
  C   C54       1.0  0.00475  0.55163  0.21430  1.0000
  C   C55       1.0  0.00338  0.95560  0.21281  1.0000
  C   C56       1.0  0.00235  0.91485  0.23090  1.0000
  C   C57       1.0  0.00243  0.90019  0.32015  1.0000
  H   H25       1.0  0.11168  0.50404  0.02760  1.0000
  H   H26       1.0  0.04258  0.50313  0.05691  1.0000
  H   H27       1.0  0.46475  0.00397  0.05554  1.0000
  H   H28       1.0  0.39564  0.00341  0.02299  1.0000
  H   H29       1.0  0.00572  0.61190  0.18162  1.0000
  H   H30       1.0  0.00440  0.54267  0.14927  1.0000
  H   H31       1.0  0.00303  0.96499  0.14816  1.0000
  H   H32       1.0  0.00184  0.89580  0.17757  1.0000
  C   C58       1.0  0.00737  0.64746  0.34069  1.0000
  C   C59       1.0  0.04007  0.67088  0.31344  1.0000
  C   C60       1.0  0.03813  0.71257  0.32147  1.0000
  C   C61       1.0  0.50404  0.73177  0.35443  1.0000
  C   C62       1.0  0.50103  0.77389  0.35142  1.0000
  C   C63       1.0  0.47278  0.79301  0.29589  1.0000
  C   C64       1.0  0.47290  0.83476  0.28906  1.0000
  C   C65       1.0  0.50058  0.85847  0.33556  1.0000
  H   H33       1.0  0.45269  0.84792  0.24765  1.0000
  H   H34       1.0  0.06141  0.72911  0.29895  1.0000
  N   N5        1.0  0.44614  0.77012  0.24423  1.0000
  N   N6        1.0  0.07408  0.65213  0.27815  1.0000
  O   O9        1.0  0.45121  0.77537  0.16153  1.0000
  O   O10       1.0  0.08094  0.66297  0.19903  1.0000
  O   O11       1.0  0.41088  0.77801  0.26332  1.0000
  O   O12       1.0  0.10401  0.65907  0.32536  1.0000
  O   O13       1.0  0.21724  0.96589  0.31777  1.0000
  C   C66       1.0  0.00484  0.96900  0.37276  1.0000
  C   C67       1.0  0.00476  0.53704  0.37389  1.0000
  C   C68       1.0  0.00509  0.57788  0.39413  1.0000
  C   C69       1.0  0.00422  0.92800  0.39139  1.0000
  C   C70       1.0  0.03857  0.50300  0.49900  1.0000
  C   C71       1.0  0.02488  0.50308  0.58754  1.0000
  C   C72       1.0  0.48355  0.00284  0.58684  1.0000
  C   C73       1.0  0.47058  0.00260  0.49775  1.0000
  C   C74       1.0  0.45587  0.00318  0.65716  1.0000
  C   C75       1.0  0.41523  0.00277  0.63735  1.0000
  C   C76       1.0  0.40143  0.00217  0.54747  1.0000
  C   C77       1.0  0.42978  0.00225  0.47736  1.0000
  C   C78       1.0  0.07955  0.50395  0.48042  1.0000
  C   C79       1.0  0.10749  0.50514  0.55157  1.0000
  C   C80       1.0  0.09273  0.50436  0.64080  1.0000
  C   C81       1.0  0.05197  0.50345  0.65890  1.0000
  H   H35       1.0  0.42099  0.00160  0.41172  1.0000
  H   H36       1.0  0.08870  0.50487  0.41506  1.0000
  H   H37       1.0  0.00549  0.58685  0.45967  1.0000
  H   H38       1.0  0.00379  0.91871  0.45669  1.0000
  C   C82       1.0  0.00479  0.50283  0.43584  1.0000
  C   C83       1.0  0.47212  0.70802  0.38310  1.0000
  C   C84       1.0  0.47384  0.66655  0.37688  1.0000
  H   H39       1.0  0.44684  0.72088  0.40675  1.0000
  H   H40       1.0  0.44952  0.65047  0.39504  1.0000
  C   C85       1.0  0.52793  0.83905  0.39199  1.0000
  C   C86       1.0  0.52839  0.79754  0.39904  1.0000
  H   H41       1.0  0.54905  0.85492  0.42534  1.0000
  H   H42       1.0  0.54942  0.78458  0.43862  1.0000
  C   C87       1.0  0.35984  0.50189  0.53017  1.0000
  C   C88       1.0  0.34073  0.53213  0.48008  1.0000
  C   C89       1.0  0.29888  0.53250  0.47366  1.0000
  C   C90       1.0  0.27558  0.00313  0.51507  1.0000
  C   C91       1.0  0.29481  0.97273  0.56270  1.0000
  C   C92       1.0  0.33620  0.97224  0.57030  1.0000
  H   H43       1.0  0.27874  0.95139  0.59484  1.0000
  H   H44       1.0  0.34898  0.95018  0.60721  1.0000
  C   C93       1.0  0.23361  0.00552  0.51592  1.0000
  C   C94       1.0  0.20955  0.98149  0.46036  1.0000
  C   C95       1.0  0.16785  0.98261  0.47052  1.0000
  C   C96       1.0  0.14932  0.00669  0.53585  1.0000
  C   C97       1.0  0.17401  0.03118  0.58866  1.0000
  C   C98       1.0  0.21531  0.03061  0.57909  1.0000
  H   H45       1.0  0.15104  0.96415  0.43188  1.0000
  H   H46       1.0  0.16212  0.04959  0.63591  1.0000
  H   H47       1.0  0.23201  0.04797  0.62062  1.0000
  H   H48       1.0  0.28530  0.55505  0.43994  1.0000
  N   N7        1.0  0.22782  0.95684  0.39592  1.0000
  N   N8        1.0  0.36360  0.56257  0.44083  1.0000
  O   O14       1.0  0.35914  0.56353  0.35714  1.0000
  O   O15       1.0  0.21986  0.92110  0.40934  1.0000
  O   O16       1.0  0.35498  0.59584  0.47252  1.0000
  C   C99       1.0  0.50437  0.48268  0.28420  1.0000
  C   C100      1.0  0.50464  0.02402  0.28480  1.0000
  C   C101      1.0  0.50604  0.10601  0.32371  1.0000
  C   C102      1.0  0.50559  0.09228  0.23387  1.0000
  C   C103      1.0  0.50475  0.05163  0.21430  1.0000
  C   C104      1.0  0.50338  0.45560  0.21281  1.0000
  C   C105      1.0  0.50235  0.41485  0.23090  1.0000
  C   C106      1.0  0.50243  0.40020  0.32015  1.0000
  H   H49       1.0  0.61168  0.00404  0.02760  1.0000
  H   H50       1.0  0.54258  0.00313  0.05691  1.0000
  H   H51       1.0  0.96476  0.50397  0.05554  1.0000
  H   H52       1.0  0.89565  0.50341  0.02299  1.0000
  H   H53       1.0  0.50572  0.11190  0.18162  1.0000
  H   H54       1.0  0.50440  0.04267  0.14927  1.0000
  H   H55       1.0  0.50304  0.46499  0.14816  1.0000
  H   H56       1.0  0.50184  0.39581  0.17757  1.0000
  C   C107      1.0  0.50737  0.14746  0.34069  1.0000
  C   C108      1.0  0.54007  0.17088  0.31344  1.0000
  C   C109      1.0  0.53813  0.21257  0.32147  1.0000
  C   C110      1.0  0.00404  0.23176  0.35443  1.0000
  C   C111      1.0  0.00102  0.27389  0.35142  1.0000
  C   C112      1.0  0.97278  0.29301  0.29589  1.0000
  C   C113      1.0  0.97290  0.33476  0.28906  1.0000
  C   C114      1.0  0.00058  0.35846  0.33556  1.0000
  H   H57       1.0  0.95269  0.34792  0.24765  1.0000
  H   H58       1.0  0.56141  0.22911  0.29895  1.0000
  N   N9        1.0  0.94614  0.27012  0.24423  1.0000
  N   N10       1.0  0.57408  0.15213  0.27815  1.0000
  O   O17       1.0  0.95121  0.27537  0.16153  1.0000
  O   O18       1.0  0.58093  0.16297  0.19903  1.0000
  O   O19       1.0  0.91088  0.27801  0.26332  1.0000
  O   O20       1.0  0.60401  0.15907  0.32536  1.0000
  O   O21       1.0  0.71724  0.46589  0.31777  1.0000
  C   C115      1.0  0.50484  0.46900  0.37276  1.0000
  C   C116      1.0  0.50476  0.03705  0.37389  1.0000
  C   C117      1.0  0.50509  0.07788  0.39413  1.0000
  C   C118      1.0  0.50422  0.42800  0.39139  1.0000
  C   C119      1.0  0.53857  0.00299  0.49900  1.0000
  C   C120      1.0  0.52488  0.00308  0.58754  1.0000
  C   C121      1.0  0.98355  0.50284  0.58684  1.0000
  C   C122      1.0  0.97058  0.50259  0.49775  1.0000
  C   C123      1.0  0.95587  0.50318  0.65715  1.0000
  C   C124      1.0  0.91523  0.50277  0.63735  1.0000
  C   C125      1.0  0.90143  0.50217  0.54747  1.0000
  C   C126      1.0  0.92978  0.50226  0.47736  1.0000
  C   C127      1.0  0.57955  0.00394  0.48042  1.0000
  C   C128      1.0  0.60749  0.00514  0.55157  1.0000
  C   C129      1.0  0.59273  0.00436  0.64080  1.0000
  C   C130      1.0  0.55197  0.00345  0.65890  1.0000
  H   H59       1.0  0.92100  0.50160  0.41172  1.0000
  H   H60       1.0  0.58870  0.00487  0.41506  1.0000
  H   H61       1.0  0.50549  0.08685  0.45967  1.0000
  H   H62       1.0  0.50379  0.41871  0.45669  1.0000
  C   C131      1.0  0.50479  0.00283  0.43584  1.0000
  C   C132      1.0  0.97212  0.20802  0.38310  1.0000
  C   C133      1.0  0.97384  0.16655  0.37688  1.0000
  H   H63       1.0  0.94684  0.22088  0.40675  1.0000
  H   H64       1.0  0.94952  0.15047  0.39504  1.0000
  C   C134      1.0  0.02793  0.33905  0.39199  1.0000
  C   C135      1.0  0.02839  0.29754  0.39904  1.0000
  H   H65       1.0  0.04905  0.35491  0.42534  1.0000
  H   H66       1.0  0.04942  0.28458  0.43862  1.0000
  C   C136      1.0  0.85983  0.00189  0.53017  1.0000
  C   C137      1.0  0.84073  0.03213  0.48008  1.0000
  C   C138      1.0  0.79888  0.03250  0.47366  1.0000
  C   C139      1.0  0.77558  0.50313  0.51507  1.0000
  C   C140      1.0  0.79482  0.47273  0.56270  1.0000
  C   C141      1.0  0.83620  0.47224  0.57030  1.0000
  H   H67       1.0  0.77874  0.45139  0.59484  1.0000
  H   H68       1.0  0.84898  0.45018  0.60721  1.0000
  C   C142      1.0  0.73361  0.50552  0.51592  1.0000
  C   C143      1.0  0.70954  0.48149  0.46036  1.0000
  C   C144      1.0  0.66785  0.48261  0.47052  1.0000
  C   C145      1.0  0.64932  0.50669  0.53585  1.0000
  C   C146      1.0  0.67402  0.53118  0.58866  1.0000
  C   C147      1.0  0.71531  0.53061  0.57909  1.0000
  H   H69       1.0  0.65104  0.46415  0.43188  1.0000
  H   H70       1.0  0.66213  0.54959  0.63591  1.0000
  H   H71       1.0  0.73201  0.54797  0.62062  1.0000
  H   H72       1.0  0.78530  0.05505  0.43995  1.0000
  N   N11       1.0  0.72782  0.45684  0.39592  1.0000
  N   N12       1.0  0.86360  0.06257  0.44083  1.0000
  O   O22       1.0  0.85914  0.06353  0.35714  1.0000
  O   O23       1.0  0.71986  0.42111  0.40933  1.0000
  O   O24       1.0  0.85498  0.09584  0.47252  1.0000
  C   C148      1.0  0.50437  0.98268  0.28420  1.0000
  C   C149      1.0  0.50464  0.52402  0.28480  1.0000
  C   C150      1.0  0.50605  0.60601  0.32371  1.0000
  C   C151      1.0  0.50559  0.59228  0.23387  1.0000
  C   C152      1.0  0.50475  0.55163  0.21430  1.0000
  C   C153      1.0  0.50338  0.95560  0.21281  1.0000
  C   C154      1.0  0.50235  0.91485  0.23090  1.0000
  C   C155      1.0  0.50243  0.90019  0.32015  1.0000
  H   H73       1.0  0.61168  0.50404  0.02760  1.0000
  H   H74       1.0  0.54259  0.50313  0.05691  1.0000
  H   H75       1.0  0.96476  0.00397  0.05554  1.0000
  H   H76       1.0  0.89565  0.00341  0.02299  1.0000
  H   H77       1.0  0.50572  0.61190  0.18162  1.0000
  H   H78       1.0  0.50440  0.54267  0.14927  1.0000
  H   H79       1.0  0.50304  0.96499  0.14816  1.0000
  H   H80       1.0  0.50184  0.89580  0.17757  1.0000
  C   C156      1.0  0.50737  0.64746  0.34069  1.0000
  C   C157      1.0  0.54007  0.67088  0.31344  1.0000
  C   C158      1.0  0.53813  0.71257  0.32147  1.0000
  C   C159      1.0  0.00404  0.73177  0.35443  1.0000
  C   C160      1.0  0.00102  0.77389  0.35142  1.0000
  C   C161      1.0  0.97278  0.79301  0.29589  1.0000
  C   C162      1.0  0.97290  0.83476  0.28906  1.0000
  C   C163      1.0  0.00058  0.85847  0.33556  1.0000
  H   H81       1.0  0.95269  0.84792  0.24765  1.0000
  H   H82       1.0  0.56141  0.72911  0.29895  1.0000
  N   N13       1.0  0.94614  0.77012  0.24423  1.0000
  N   N14       1.0  0.57408  0.65213  0.27815  1.0000
  O   O25       1.0  0.95121  0.77537  0.16153  1.0000
  O   O26       1.0  0.58094  0.66297  0.19903  1.0000
  O   O27       1.0  0.91088  0.77801  0.26332  1.0000
  O   O28       1.0  0.60401  0.65907  0.32536  1.0000
  O   O29       1.0  0.71724  0.96589  0.31777  1.0000
  C   C164      1.0  0.50484  0.96900  0.37276  1.0000
  C   C165      1.0  0.50476  0.53704  0.37389  1.0000
  C   C166      1.0  0.50509  0.57788  0.39413  1.0000
  C   C167      1.0  0.50422  0.92800  0.39139  1.0000
  C   C168      1.0  0.53857  0.50300  0.49900  1.0000
  C   C169      1.0  0.52488  0.50308  0.58754  1.0000
  C   C170      1.0  0.98355  0.00284  0.58684  1.0000
  C   C171      1.0  0.97058  0.00260  0.49775  1.0000
  C   C172      1.0  0.95587  0.00318  0.65716  1.0000
  C   C173      1.0  0.91523  0.00277  0.63735  1.0000
  C   C174      1.0  0.90143  0.00217  0.54747  1.0000
  C   C175      1.0  0.92978  0.00225  0.47736  1.0000
  C   C176      1.0  0.57955  0.50395  0.48042  1.0000
  C   C177      1.0  0.60749  0.50514  0.55157  1.0000
  C   C178      1.0  0.59273  0.50436  0.64080  1.0000
  C   C179      1.0  0.55197  0.50345  0.65890  1.0000
  H   H83       1.0  0.92100  0.00160  0.41172  1.0000
  H   H84       1.0  0.58870  0.50487  0.41506  1.0000
  H   H85       1.0  0.50549  0.58685  0.45967  1.0000
  H   H86       1.0  0.50379  0.91871  0.45669  1.0000
  C   C180      1.0  0.50479  0.50283  0.43584  1.0000
  C   C181      1.0  0.97212  0.70802  0.38310  1.0000
  C   C182      1.0  0.97384  0.66655  0.37688  1.0000
  H   H87       1.0  0.94684  0.72088  0.40675  1.0000
  H   H88       1.0  0.94952  0.65047  0.39504  1.0000
  C   C183      1.0  0.02793  0.83905  0.39199  1.0000
  C   C184      1.0  0.02839  0.79754  0.39904  1.0000
  H   H89       1.0  0.04905  0.85492  0.42534  1.0000
  H   H90       1.0  0.04942  0.78458  0.43862  1.0000
  C   C185      1.0  0.85983  0.50189  0.53017  1.0000
  C   C186      1.0  0.84073  0.53213  0.48008  1.0000
  C   C187      1.0  0.79888  0.53250  0.47366  1.0000
  C   C188      1.0  0.77558  0.00313  0.51507  1.0000
  C   C189      1.0  0.79482  0.97273  0.56270  1.0000
  C   C190      1.0  0.83620  0.97224  0.57030  1.0000
  H   H91       1.0  0.77874  0.95139  0.59484  1.0000
  H   H92       1.0  0.84898  0.95018  0.60721  1.0000
  C   C191      1.0  0.73361  0.00552  0.51592  1.0000
  C   C192      1.0  0.70954  0.98149  0.46036  1.0000
  C   C193      1.0  0.66785  0.98261  0.47052  1.0000
  C   C194      1.0  0.64932  0.00669  0.53585  1.0000
  C   C195      1.0  0.67401  0.03118  0.58866  1.0000
  C   C196      1.0  0.71531  0.03061  0.57909  1.0000
  H   H93       1.0  0.65104  0.96415  0.43188  1.0000
  H   H94       1.0  0.66213  0.04959  0.63591  1.0000
  H   H95       1.0  0.73201  0.04797  0.62062  1.0000
  H   H96       1.0  0.78530  0.55505  0.43994  1.0000
  N   N15       1.0  0.72782  0.95684  0.39592  1.0000
  N   N16       1.0  0.86360  0.56257  0.44083  1.0000
  O   O30       1.0  0.85914  0.56353  0.35714  1.0000
  O   O31       1.0  0.71985  0.92110  0.40934  1.0000
  O   O32       1.0  0.85498  0.59584  0.47252  1.0000
