data_image0
_chemical_formula_structural       C3H2CH2C3H2C3H3C5H3CH3C5H3CH3C2H2C2H2C2H2C2H2C2H2C2H2C21H13C24H15C24H15C24H15C24H15C24H15CHC2H2C2H2C5H3CH3C5H3CH3C5H3CH3C5H3CH3C5H3CH3C5H3CH3
_chemical_formula_sum              "C216 H162"
_cell_length_a       61.5013
_cell_length_b       61.5012
_cell_length_c       14.9635
_cell_angle_alpha    90
_cell_angle_beta     90
_cell_angle_gamma    120

_space_group_name_H-M_alt    "P 1"
_space_group_IT_number       1

loop_
  _space_group_symop_operation_xyz
  'x, y, z'

loop_
  _atom_site_type_symbol
  _atom_site_label
  _atom_site_symmetry_multiplicity
  _atom_site_fract_x
  _atom_site_fract_y
  _atom_site_fract_z
  _atom_site_occupancy
  C   C1        1.0  0.02859  0.51354  0.31353  1.0000
  C   C2        1.0  0.01532  0.49918  0.23678  1.0000
  C   C3        1.0  0.02928  0.49748  0.15738  1.0000
  H   H1        1.0  0.02487  0.50500  0.09846  1.0000
  H   H2        1.0  0.02390  0.47795  0.14501  1.0000
  C   C4        1.0  0.01497  0.51389  0.38879  1.0000
  H   H3        1.0  0.02410  0.52405  0.44452  1.0000
  H   H4        1.0  0.04961  0.50763  0.16450  1.0000
  C   C5        1.0  0.05529  0.52772  0.31985  1.0000
  C   C6        1.0  0.06930  0.54988  0.26935  1.0000
  C   C7        1.0  0.06835  0.51978  0.37650  1.0000
  H   H5        1.0  0.05873  0.50386  0.41426  1.0000
  H   H6        1.0  0.06035  0.55612  0.22777  1.0000
  C   C8        1.0  0.97506  0.48679  0.31356  1.0000
  C   C9        1.0  0.98833  0.48569  0.23680  1.0000
  C   C10       1.0  0.97435  0.47002  0.15741  1.0000
  H   H7        1.0  0.95403  0.45985  0.16456  1.0000
  H   H8        1.0  0.97973  0.45587  0.14505  1.0000
  H   H9        1.0  0.97876  0.48195  0.09848  1.0000
  C   C11       1.0  0.51626  0.48889  0.31358  1.0000
  C   C12       1.0  0.48951  0.51567  0.31356  1.0000
  C   C13       1.0  0.50387  0.51675  0.23680  1.0000
  C   C14       1.0  0.51736  0.50325  0.23682  1.0000
  C   C15       1.0  0.50557  0.53242  0.15740  1.0000
  H   H10       1.0  0.49542  0.54260  0.16453  1.0000
  H   H11       1.0  0.49805  0.52049  0.09849  1.0000
  H   H12       1.0  0.52511  0.54657  0.14505  1.0000
  C   C16       1.0  0.53303  0.50495  0.15744  1.0000
  H   H13       1.0  0.54320  0.49479  0.16458  1.0000
  H   H14       1.0  0.54718  0.52448  0.14508  1.0000
  H   H15       1.0  0.52110  0.49743  0.09851  1.0000
  C   C17       1.0  0.51415  0.02798  0.31363  1.0000
  C   C18       1.0  0.48739  0.97445  0.31362  1.0000
  C   C19       1.0  0.48630  0.98772  0.23686  1.0000
  C   C20       1.0  0.49979  0.01471  0.23686  1.0000
  C   C21       1.0  0.47063  0.97375  0.15746  1.0000
  H   H16       1.0  0.46046  0.95343  0.16459  1.0000
  H   H17       1.0  0.48256  0.97817  0.09854  1.0000
  H   H18       1.0  0.45648  0.97913  0.14509  1.0000
  C   C22       1.0  0.49809  0.02868  0.15747  1.0000
  H   H19       1.0  0.50825  0.04901  0.16461  1.0000
  H   H20       1.0  0.47856  0.02330  0.14511  1.0000
  H   H21       1.0  0.50562  0.02427  0.09855  1.0000
  C   C23       1.0  0.28262  0.54040  0.27266  1.0000
  C   C24       1.0  0.26003  0.54070  0.27218  1.0000
  H   H22       1.0  0.25744  0.55083  0.22316  1.0000
  H   H23       1.0  0.29555  0.55035  0.22401  1.0000
  C   C25       1.0  0.46269  0.74284  0.27270  1.0000
  C   C26       1.0  0.46241  0.71996  0.27217  1.0000
  H   H24       1.0  0.45229  0.70725  0.22314  1.0000
  H   H25       1.0  0.45274  0.74583  0.22406  1.0000
  C   C27       1.0  0.26021  0.72046  0.27266  1.0000
  C   C28       1.0  0.28310  0.74305  0.27215  1.0000
  H   H26       1.0  0.29581  0.74564  0.22311  1.0000
  H   H27       1.0  0.25722  0.70753  0.22398  1.0000
  C   C29       1.0  0.72055  0.46181  0.27212  1.0000
  C   C30       1.0  0.74341  0.46205  0.27268  1.0000
  H   H28       1.0  0.74640  0.45212  0.22397  1.0000
  H   H29       1.0  0.70784  0.45170  0.22308  1.0000
  C   C31       1.0  0.54120  0.25933  0.27212  1.0000
  C   C32       1.0  0.54099  0.28197  0.27272  1.0000
  H   H30       1.0  0.55093  0.29490  0.22405  1.0000
  H   H31       1.0  0.55131  0.25674  0.22306  1.0000
  C   C33       1.0  0.74369  0.28250  0.27220  1.0000
  C   C34       1.0  0.72106  0.25965  0.27277  1.0000
  H   H32       1.0  0.70813  0.25667  0.22410  1.0000
  H   H33       1.0  0.74629  0.29522  0.22317  1.0000
  C   C35       1.0  0.17598  0.60909  0.34525  1.0000
  C   C36       1.0  0.14954  0.59551  0.33742  1.0000
  C   C37       1.0  0.13595  0.56888  0.33317  1.0000
  C   C38       1.0  0.14977  0.55605  0.33518  1.0000
  C   C39       1.0  0.17621  0.56906  0.34331  1.0000
  C   C40       1.0  0.18891  0.59552  0.34725  1.0000
  C   C41       1.0  0.10904  0.55531  0.32915  1.0000
  C   C42       1.0  0.09572  0.56336  0.27375  1.0000
  C   C43       1.0  0.09475  0.53334  0.38095  1.0000
  C   C44       1.0  0.18994  0.63579  0.35143  1.0000
  C   C45       1.0  0.18826  0.65110  0.28439  1.0000
  C   C46       1.0  0.20511  0.67721  0.28320  1.0000
  C   C47       1.0  0.22374  0.68872  0.34998  1.0000
  C   C48       1.0  0.22488  0.67351  0.41851  1.0000
  C   C49       1.0  0.20816  0.64750  0.41943  1.0000
  C   C50       1.0  0.19031  0.55644  0.34847  1.0000
  C   C51       1.0  0.20842  0.56277  0.41678  1.0000
  C   C52       1.0  0.22491  0.55319  0.41633  1.0000
  C   C53       1.0  0.22366  0.53675  0.34795  1.0000
  C   C54       1.0  0.20521  0.52990  0.28066  1.0000
  C   C55       1.0  0.18856  0.53941  0.28143  1.0000
  H   H34       1.0  0.20429  0.68765  0.23141  1.0000
  H   H35       1.0  0.17590  0.64317  0.23253  1.0000
  H   H36       1.0  0.23863  0.68108  0.46625  1.0000
  H   H37       1.0  0.21014  0.63699  0.46845  1.0000
  H   H38       1.0  0.21038  0.57516  0.46609  1.0000
  H   H39       1.0  0.23853  0.55916  0.46451  1.0000
  H   H40       1.0  0.17623  0.53504  0.22952  1.0000
  H   H41       1.0  0.20429  0.51855  0.22908  1.0000
  H   H42       1.0  0.10344  0.52707  0.42351  1.0000
  H   H43       1.0  0.10519  0.57891  0.23420  1.0000
  H   H44       1.0  0.14002  0.60522  0.33856  1.0000
  H   H45       1.0  0.20814  0.60520  0.35027  1.0000
  H   H46       1.0  0.14047  0.53686  0.33167  1.0000
  C   C56       1.0  0.39398  0.56753  0.34523  1.0000
  C   C57       1.0  0.40755  0.55466  0.33742  1.0000
  C   C58       1.0  0.43418  0.56770  0.33316  1.0000
  C   C59       1.0  0.44701  0.59435  0.33515  1.0000
  C   C60       1.0  0.43401  0.60779  0.34326  1.0000
  C   C61       1.0  0.40754  0.59402  0.34721  1.0000
  C   C62       1.0  0.44775  0.55436  0.32915  1.0000
  C   C63       1.0  0.43969  0.53298  0.27376  1.0000
  C   C64       1.0  0.45317  0.52004  0.26940  1.0000
  C   C65       1.0  0.47533  0.52819  0.31987  1.0000
  C   C66       1.0  0.48328  0.54919  0.37652  1.0000
  C   C67       1.0  0.46971  0.56203  0.38095  1.0000
  C   C68       1.0  0.36728  0.55479  0.35143  1.0000
  C   C69       1.0  0.35196  0.53778  0.28441  1.0000
  C   C70       1.0  0.32585  0.52853  0.28324  1.0000
  C   C71       1.0  0.31434  0.53565  0.35000  1.0000
  C   C72       1.0  0.32955  0.55200  0.41853  1.0000
  C   C73       1.0  0.35557  0.56131  0.41943  1.0000
  C   C74       1.0  0.44663  0.63451  0.34840  1.0000
  C   C75       1.0  0.44032  0.64631  0.41668  1.0000
  C   C76       1.0  0.44988  0.67237  0.41611  1.0000
  C   C77       1.0  0.46636  0.68755  0.34781  1.0000
  C   C78       1.0  0.47323  0.67593  0.28063  1.0000
  C   C79       1.0  0.46367  0.64977  0.28137  1.0000
  H   H47       1.0  0.31541  0.51728  0.23143  1.0000
  H   H48       1.0  0.35989  0.53335  0.23253  1.0000
  H   H49       1.0  0.32199  0.55820  0.46624  1.0000
  H   H50       1.0  0.36608  0.57379  0.46843  1.0000
  H   H51       1.0  0.42788  0.63588  0.46591  1.0000
  H   H52       1.0  0.44393  0.68004  0.46427  1.0000
  H   H53       1.0  0.46807  0.64180  0.22955  1.0000
  H   H54       1.0  0.48461  0.68636  0.22907  1.0000
  H   H55       1.0  0.47599  0.57700  0.42351  1.0000
  H   H56       1.0  0.49919  0.55549  0.41427  1.0000
  H   H57       1.0  0.44694  0.50486  0.22779  1.0000
  H   H58       1.0  0.42415  0.52690  0.23421  1.0000
  H   H59       1.0  0.39785  0.53544  0.33858  1.0000
  H   H60       1.0  0.39786  0.60358  0.35023  1.0000
  H   H61       1.0  0.46621  0.60424  0.33165  1.0000
  C   C80       1.0  0.43554  0.82705  0.34517  1.0000
  C   C81       1.0  0.44841  0.85350  0.33732  1.0000
  C   C82       1.0  0.43537  0.86709  0.33315  1.0000
  C   C83       1.0  0.40872  0.85327  0.33516  1.0000
  C   C84       1.0  0.39529  0.82684  0.34325  1.0000
  C   C85       1.0  0.40904  0.81413  0.34719  1.0000
  C   C86       1.0  0.44872  0.89400  0.32919  1.0000
  C   C87       1.0  0.47010  0.90733  0.27381  1.0000
  C   C88       1.0  0.48303  0.93375  0.26944  1.0000
  C   C89       1.0  0.47487  0.94775  0.31993  1.0000
  C   C90       1.0  0.45388  0.93469  0.37661  1.0000
  C   C91       1.0  0.44105  0.90829  0.38103  1.0000
  C   C92       1.0  0.44828  0.81309  0.35134  1.0000
  C   C93       1.0  0.46530  0.81479  0.28437  1.0000
  C   C94       1.0  0.47455  0.79794  0.28318  1.0000
  C   C95       1.0  0.46746  0.77933  0.35001  1.0000
  C   C96       1.0  0.45108  0.77817  0.41847  1.0000
  C   C97       1.0  0.44177  0.79488  0.41939  1.0000
  C   C98       1.0  0.36857  0.81273  0.34843  1.0000
  C   C99       1.0  0.35677  0.79463  0.41675  1.0000
  C   C100      1.0  0.33071  0.77815  0.41627  1.0000
  C   C101      1.0  0.31553  0.77942  0.34789  1.0000
  C   C102      1.0  0.32713  0.79788  0.28064  1.0000
  C   C103      1.0  0.35330  0.81448  0.28135  1.0000
  H   H62       1.0  0.48583  0.79878  0.23146  1.0000
  H   H63       1.0  0.46973  0.82715  0.23249  1.0000
  H   H64       1.0  0.44488  0.76440  0.46616  1.0000
  H   H65       1.0  0.42925  0.79287  0.46831  1.0000
  H   H66       1.0  0.36721  0.79264  0.46598  1.0000
  H   H67       1.0  0.32305  0.76451  0.46437  1.0000
  H   H68       1.0  0.36126  0.82686  0.22956  1.0000
  H   H69       1.0  0.31670  0.79882  0.22908  1.0000
  H   H70       1.0  0.42607  0.89959  0.42356  1.0000
  H   H71       1.0  0.44758  0.94430  0.41435  1.0000
  H   H72       1.0  0.49820  0.94270  0.22781  1.0000
  H   H73       1.0  0.47617  0.89787  0.23420  1.0000
  H   H74       1.0  0.46763  0.86301  0.33854  1.0000
  H   H75       1.0  0.39949  0.79489  0.35019  1.0000
  H   H76       1.0  0.39883  0.86258  0.33169  1.0000
  C   C104      1.0  0.82746  0.39465  0.34334  1.0000
  C   C105      1.0  0.85390  0.40809  0.33522  1.0000
  C   C106      1.0  0.86770  0.43474  0.33322  1.0000
  C   C107      1.0  0.85410  0.44778  0.33745  1.0000
  C   C108      1.0  0.82766  0.43489  0.34527  1.0000
  C   C109      1.0  0.81474  0.40840  0.34728  1.0000
  C   C110      1.0  0.89462  0.44810  0.32923  1.0000
  C   C111      1.0  0.90891  0.44043  0.38103  1.0000
  C   C112      1.0  0.93531  0.45328  0.37660  1.0000
  C   C113      1.0  0.94836  0.47427  0.31991  1.0000
  C   C114      1.0  0.93435  0.48242  0.26944  1.0000
  C   C115      1.0  0.90793  0.46947  0.27381  1.0000
  C   C116      1.0  0.81338  0.36793  0.34849  1.0000
  C   C117      1.0  0.81512  0.35266  0.28138  1.0000
  C   C118      1.0  0.79851  0.32650  0.28064  1.0000
  C   C119      1.0  0.78007  0.31488  0.34794  1.0000
  C   C120      1.0  0.77879  0.33006  0.41629  1.0000
  C   C121      1.0  0.79526  0.35612  0.41679  1.0000
  C   C122      1.0  0.81368  0.44761  0.35142  1.0000
  C   C123      1.0  0.79545  0.44109  0.41942  1.0000
  C   C124      1.0  0.77874  0.45039  0.41851  1.0000
  C   C125      1.0  0.77988  0.46675  0.35001  1.0000
  C   C126      1.0  0.79850  0.47386  0.28320  1.0000
  C   C127      1.0  0.81535  0.46460  0.28437  1.0000
  H   H77       1.0  0.79947  0.31607  0.22910  1.0000
  H   H78       1.0  0.82750  0.36063  0.22959  1.0000
  H   H79       1.0  0.76515  0.32240  0.46439  1.0000
  H   H80       1.0  0.79327  0.36656  0.46603  1.0000
  H   H81       1.0  0.79349  0.42862  0.46847  1.0000
  H   H82       1.0  0.76499  0.44421  0.46628  1.0000
  H   H83       1.0  0.82774  0.46908  0.23259  1.0000
  H   H84       1.0  0.79934  0.48514  0.23149  1.0000
  H   H85       1.0  0.89846  0.47555  0.23428  1.0000
  H   H86       1.0  0.94329  0.49759  0.22782  1.0000
  H   H87       1.0  0.94493  0.44698  0.41432  1.0000
  H   H88       1.0  0.90022  0.42546  0.42360  1.0000
  H   H89       1.0  0.86321  0.39821  0.33174  1.0000
  H   H90       1.0  0.79551  0.39883  0.35028  1.0000
  H   H91       1.0  0.86361  0.46700  0.33860  1.0000
  C   C128      1.0  0.60838  0.43341  0.34336  1.0000
  C   C129      1.0  0.59494  0.44640  0.33521  1.0000
  C   C130      1.0  0.56829  0.43356  0.33322  1.0000
  C   C131      1.0  0.55525  0.40693  0.33743  1.0000
  C   C132      1.0  0.56814  0.39337  0.34528  1.0000
  C   C133      1.0  0.59463  0.40694  0.34730  1.0000
  C   C134      1.0  0.55494  0.44712  0.32924  1.0000
  C   C135      1.0  0.56261  0.46908  0.38105  1.0000
  C   C136      1.0  0.54977  0.48265  0.37660  1.0000
  C   C137      1.0  0.52878  0.47471  0.31993  1.0000
  C   C138      1.0  0.52062  0.45254  0.26946  1.0000
  C   C139      1.0  0.53356  0.43906  0.27385  1.0000
  C   C140      1.0  0.63510  0.44604  0.34850  1.0000
  C   C141      1.0  0.65037  0.46303  0.28137  1.0000
  C   C142      1.0  0.67653  0.47259  0.28064  1.0000
  C   C143      1.0  0.68815  0.46577  0.34796  1.0000
  C   C144      1.0  0.67296  0.44930  0.41627  1.0000
  C   C145      1.0  0.64691  0.43974  0.41682  1.0000
  C   C146      1.0  0.55541  0.36667  0.35146  1.0000
  C   C147      1.0  0.56193  0.35496  0.41947  1.0000
  C   C148      1.0  0.55265  0.32895  0.41855  1.0000
  C   C149      1.0  0.53628  0.31373  0.35005  1.0000
  C   C150      1.0  0.52915  0.32523  0.28329  1.0000
  C   C151      1.0  0.53843  0.35135  0.28439  1.0000
  H   H92       1.0  0.68696  0.48397  0.22910  1.0000
  H   H93       1.0  0.64240  0.46744  0.22957  1.0000
  H   H94       1.0  0.68062  0.44334  0.46446  1.0000
  H   H95       1.0  0.63647  0.42732  0.46608  1.0000
  H   H96       1.0  0.57441  0.36547  0.46849  1.0000
  H   H97       1.0  0.55883  0.32138  0.46630  1.0000
  H   H98       1.0  0.53396  0.35927  0.23261  1.0000
  H   H99       1.0  0.51789  0.31479  0.23151  1.0000
  H   H100      1.0  0.52749  0.42352  0.23428  1.0000
  H   H101      1.0  0.50545  0.44631  0.22784  1.0000
  H   H102      1.0  0.55607  0.49856  0.41436  1.0000
  H   H103      1.0  0.57758  0.47536  0.42362  1.0000
  H   H104      1.0  0.60482  0.46560  0.33175  1.0000
  H   H105      1.0  0.60419  0.39727  0.35031  1.0000
  H   H106      1.0  0.53604  0.39722  0.33863  1.0000
  C   C152      1.0  0.56963  0.17559  0.34330  1.0000
  C   C153      1.0  0.55663  0.14915  0.33518  1.0000
  C   C154      1.0  0.56947  0.13534  0.33321  1.0000
  C   C155      1.0  0.59610  0.14894  0.33744  1.0000
  C   C156      1.0  0.60967  0.17538  0.34528  1.0000
  C   C157      1.0  0.59609  0.18830  0.34725  1.0000
  C   C158      1.0  0.55591  0.10842  0.32924  1.0000
  C   C159      1.0  0.53395  0.09413  0.38107  1.0000
  C   C160      1.0  0.52038  0.06774  0.37662  1.0000
  C   C161      1.0  0.52833  0.05468  0.31997  1.0000
  C   C162      1.0  0.55050  0.06869  0.26950  1.0000
  C   C163      1.0  0.56397  0.09511  0.27386  1.0000
  C   C164      1.0  0.55700  0.18968  0.34839  1.0000
  C   C165      1.0  0.53998  0.18792  0.28130  1.0000
  C   C166      1.0  0.53041  0.20452  0.28054  1.0000
  C   C167      1.0  0.53723  0.22297  0.34781  1.0000
  C   C168      1.0  0.55373  0.22429  0.41609  1.0000
  C   C169      1.0  0.56332  0.20782  0.41661  1.0000
  C   C170      1.0  0.63637  0.18935  0.35145  1.0000
  C   C171      1.0  0.64806  0.20758  0.41946  1.0000
  C   C172      1.0  0.67408  0.22429  0.41859  1.0000
  C   C173      1.0  0.68930  0.22317  0.35005  1.0000
  C   C174      1.0  0.67780  0.20455  0.28322  1.0000
  C   C175      1.0  0.65169  0.18770  0.28437  1.0000
  H   H107      1.0  0.51901  0.20354  0.22904  1.0000
  H   H108      1.0  0.53556  0.17552  0.22956  1.0000
  H   H109      1.0  0.55968  0.23791  0.46426  1.0000
  H   H110      1.0  0.57573  0.20980  0.46592  1.0000
  H   H111      1.0  0.63755  0.20954  0.46847  1.0000
  H   H112      1.0  0.68164  0.23805  0.46630  1.0000
  H   H113      1.0  0.64377  0.17530  0.23260  1.0000
  H   H114      1.0  0.68825  0.20372  0.23150  1.0000
  H   H115      1.0  0.57951  0.10457  0.23428  1.0000
  H   H116      1.0  0.55672  0.05974  0.22786  1.0000
  H   H117      1.0  0.50447  0.05811  0.41436  1.0000
  H   H118      1.0  0.52767  0.10283  0.42360  1.0000
  H   H119      1.0  0.53744  0.13984  0.33171  1.0000
  H   H120      1.0  0.60577  0.20753  0.35025  1.0000
  H   H121      1.0  0.60581  0.13942  0.33865  1.0000
  C   C176      1.0  0.98870  0.50076  0.38881  1.0000
  H   H122      1.0  0.97957  0.50179  0.44455  1.0000
  C   C177      1.0  0.50229  0.48855  0.38883  1.0000
  C   C178      1.0  0.48916  0.50169  0.38881  1.0000
  H   H123      1.0  0.47900  0.50067  0.44455  1.0000
  H   H124      1.0  0.50125  0.47839  0.44457  1.0000
  C   C179      1.0  0.51449  0.01435  0.38887  1.0000
  C   C180      1.0  0.50136  0.98808  0.38887  1.0000
  H   H125      1.0  0.50239  0.97895  0.44460  1.0000
  H   H126      1.0  0.52465  0.02348  0.44462  1.0000
  C   C181      1.0  0.28872  0.52944  0.34411  1.0000
  C   C182      1.0  0.24274  0.53006  0.34311  1.0000
  C   C183      1.0  0.24754  0.51714  0.41285  1.0000
  C   C184      1.0  0.27073  0.51686  0.41341  1.0000
  C   C185      1.0  0.22859  0.50409  0.48542  1.0000
  H   H127      1.0  0.21120  0.50444  0.47626  1.0000
  H   H128      1.0  0.23651  0.51283  0.54975  1.0000
  H   H129      1.0  0.22329  0.48433  0.48812  1.0000
  C   C186      1.0  0.27607  0.50355  0.48662  1.0000
  H   H130      1.0  0.29364  0.50349  0.47832  1.0000
  H   H131      1.0  0.26132  0.48390  0.48919  1.0000
  H   H132      1.0  0.27691  0.51239  0.55074  1.0000
  C   C187      1.0  0.47365  0.75990  0.34414  1.0000
  C   C188      1.0  0.47313  0.71334  0.34298  1.0000
  C   C189      1.0  0.48598  0.73104  0.41284  1.0000
  C   C190      1.0  0.48624  0.75451  0.41345  1.0000
  C   C191      1.0  0.49900  0.72512  0.48544  1.0000
  H   H133      1.0  0.49867  0.70739  0.47623  1.0000
  H   H134      1.0  0.49024  0.72427  0.54973  1.0000
  H   H135      1.0  0.51876  0.73959  0.48826  1.0000
  C   C192      1.0  0.49952  0.77313  0.48672  1.0000
  H   H136      1.0  0.49956  0.79075  0.47847  1.0000
  H   H137      1.0  0.51918  0.77804  0.48932  1.0000
  H   H138      1.0  0.49067  0.76511  0.55081  1.0000
  C   C193      1.0  0.24315  0.71435  0.34410  1.0000
  C   C194      1.0  0.28975  0.76035  0.34306  1.0000
  C   C195      1.0  0.27203  0.75553  0.41283  1.0000
  C   C196      1.0  0.24856  0.73234  0.41340  1.0000
  C   C197      1.0  0.27794  0.77448  0.48542  1.0000
  H   H139      1.0  0.29568  0.79187  0.47626  1.0000
  H   H140      1.0  0.27877  0.76655  0.54973  1.0000
  H   H141      1.0  0.26348  0.77978  0.48818  1.0000
  C   C198      1.0  0.22992  0.72700  0.48664  1.0000
  H   H142      1.0  0.21230  0.70943  0.47836  1.0000
  H   H143      1.0  0.22502  0.74175  0.48924  1.0000
  H   H144      1.0  0.23794  0.72616  0.55074  1.0000
  C   C199      1.0  0.71392  0.47246  0.34311  1.0000
  C   C200      1.0  0.76047  0.47295  0.34417  1.0000
  C   C201      1.0  0.75509  0.48557  0.41345  1.0000
  C   C202      1.0  0.73164  0.48533  0.41291  1.0000
  C   C203      1.0  0.77374  0.49885  0.48668  1.0000
  H   H145      1.0  0.79135  0.49888  0.47839  1.0000
  H   H146      1.0  0.76572  0.49001  0.55079  1.0000
  H   H147      1.0  0.77866  0.51851  0.48925  1.0000
  C   C204      1.0  0.72575  0.49838  0.48551  1.0000
  H   H148      1.0  0.70802  0.49806  0.47635  1.0000
  H   H149      1.0  0.74023  0.51813  0.48828  1.0000
  H   H150      1.0  0.72491  0.48962  0.54981  1.0000
  C   C205      1.0  0.53050  0.24202  0.34298  1.0000
  C   C206      1.0  0.53007  0.28811  0.34420  1.0000
  C   C207      1.0  0.51745  0.27012  0.41346  1.0000
  C   C208      1.0  0.51767  0.24690  0.41285  1.0000
  C   C209      1.0  0.50418  0.27548  0.48673  1.0000
  H   H151      1.0  0.50417  0.29307  0.47849  1.0000
  H   H152      1.0  0.51303  0.27630  0.55082  1.0000
  H   H153      1.0  0.48452  0.26076  0.48932  1.0000
  C   C210      1.0  0.50463  0.22796  0.48546  1.0000
  H   H154      1.0  0.50494  0.21055  0.47625  1.0000
  H   H155      1.0  0.48488  0.22269  0.48830  1.0000
  H   H156      1.0  0.51341  0.23587  0.54975  1.0000
  C   C211      1.0  0.76099  0.28910  0.34308  1.0000
  C   C212      1.0  0.71492  0.24259  0.34422  1.0000
  C   C213      1.0  0.73291  0.24794  0.41347  1.0000
  C   C214      1.0  0.75614  0.27139  0.41291  1.0000
  C   C215      1.0  0.72755  0.22930  0.48669  1.0000
  H   H157      1.0  0.70996  0.21169  0.47842  1.0000
  H   H158      1.0  0.72674  0.23731  0.55081  1.0000
  H   H159      1.0  0.74227  0.22436  0.48922  1.0000
  C   C216      1.0  0.77507  0.27727  0.48548  1.0000
  H   H160      1.0  0.79249  0.29499  0.47630  1.0000
  H   H161      1.0  0.78034  0.26278  0.48826  1.0000
  H   H162      1.0  0.76716  0.27812  0.54979  1.0000
