data_image0
_chemical_formula_structural       CH4CH4CNC4H2CH3NHCNC4H2CH3NHCNC4H2CH3NHC5H2CHCHCHC5H2CHCHCHC4HCNHCH3NHC4HCNHCH3NHC4HCNHCH3NH
_chemical_formula_sum              "C54 H54 N12"
_cell_length_a       29.1791
_cell_length_b       29.1791
_cell_length_c       15.0078
_cell_angle_alpha    90
_cell_angle_beta     90
_cell_angle_gamma    120

_space_group_name_H-M_alt    "P 1"
_space_group_IT_number       1

loop_
  _space_group_symop_operation_xyz
  'x, y, z'

loop_
  _atom_site_type_symbol
  _atom_site_label
  _atom_site_symmetry_multiplicity
  _atom_site_fract_x
  _atom_site_fract_y
  _atom_site_fract_z
  _atom_site_occupancy
  C   C1        1.0  0.38790  0.69990  0.23468  1.0000
  H   H1        1.0  0.42807  0.72401  0.23646  1.0000
  H   H2        1.0  0.43101  0.63894  0.18055  1.0000
  H   H3        1.0  0.20737  0.56832  0.18043  1.0000
  H   H4        1.0  0.36044  0.79196  0.18049  1.0000
  C   C2        1.0  0.61148  0.29830  0.42746  1.0000
  H   H5        1.0  0.57146  0.27319  0.42557  1.0000
  H   H6        1.0  0.57207  0.36041  0.36016  1.0000
  H   H7        1.0  0.78781  0.42731  0.36024  1.0000
  H   H8        1.0  0.63902  0.21154  0.36042  1.0000
  C   C3        1.0  0.59242  0.48369  0.34035  1.0000
  N   N1        1.0  0.55843  0.50012  0.31522  1.0000
  C   C4        1.0  0.48020  0.50582  0.32033  1.0000
  C   C5        1.0  0.46575  0.50196  0.22873  1.0000
  C   C6        1.0  0.43300  0.52267  0.20277  1.0000
  C   C7        1.0  0.41530  0.54683  0.26480  1.0000
  H   H9        1.0  0.42135  0.51989  0.13775  1.0000
  H   H10       1.0  0.62625  0.49544  0.30443  1.0000
  C   C8        1.0  0.48140  0.47495  0.16128  1.0000
  H   H11       1.0  0.47014  0.43518  0.18414  1.0000
  H   H12       1.0  0.52409  0.49735  0.15091  1.0000
  H   H13       1.0  0.46253  0.47119  0.09674  1.0000
  N   N2        1.0  0.38021  0.56543  0.24191  1.0000
  H   H14       1.0  0.36219  0.55002  0.18179  1.0000
  C   C9        1.0  0.51578  0.10866  0.34020  1.0000
  N   N3        1.0  0.49936  0.05823  0.31512  1.0000
  C   C10       1.0  0.49355  0.97427  0.32045  1.0000
  C   C11       1.0  0.49764  0.96368  0.22893  1.0000
  C   C12       1.0  0.47691  0.91023  0.20298  1.0000
  C   C13       1.0  0.45248  0.86835  0.26492  1.0000
  H   H15       1.0  0.47984  0.90137  0.13802  1.0000
  H   H16       1.0  0.50412  0.13076  0.30414  1.0000
  C   C14       1.0  0.52492  0.00637  0.16159  1.0000
  H   H17       1.0  0.56465  0.03480  0.18474  1.0000
  H   H18       1.0  0.50263  0.02675  0.15093  1.0000
  H   H19       1.0  0.52882  0.99126  0.09715  1.0000
  N   N4        1.0  0.43388  0.81465  0.24209  1.0000
  H   H20       1.0  0.44935  0.81203  0.18203  1.0000
  C   C15       1.0  0.89071  0.40692  0.34035  1.0000
  N   N5        1.0  0.94114  0.44091  0.31522  1.0000
  C   C16       1.0  0.02507  0.51913  0.32033  1.0000
  C   C17       1.0  0.03566  0.53361  0.22874  1.0000
  C   C18       1.0  0.08911  0.56635  0.20277  1.0000
  C   C19       1.0  0.13098  0.58402  0.26478  1.0000
  H   H21       1.0  0.09797  0.57802  0.13776  1.0000
  H   H22       1.0  0.86863  0.37310  0.30441  1.0000
  C   C20       1.0  0.99299  0.51799  0.16132  1.0000
  H   H23       1.0  0.96449  0.52926  0.18423  1.0000
  H   H24       1.0  0.97268  0.47530  0.15091  1.0000
  H   H25       1.0  0.00809  0.53688  0.09680  1.0000
  N   N6        1.0  0.18467  0.61911  0.24189  1.0000
  H   H26       1.0  0.18728  0.63715  0.18179  1.0000
  C   C21       1.0  0.36710  0.64454  0.23468  1.0000
  C   C22       1.0  0.35478  0.72243  0.23466  1.0000
  C   C23       1.0  0.29941  0.68787  0.23460  1.0000
  C   C24       1.0  0.27689  0.63222  0.23458  1.0000
  C   C25       1.0  0.31145  0.61142  0.23456  1.0000
  H   H27       1.0  0.27531  0.70393  0.23634  1.0000
  H   H28       1.0  0.29539  0.57125  0.23634  1.0000
  C   C26       1.0  0.40480  0.62406  0.23854  1.0000
  H   H29       1.0  0.42908  0.64119  0.29813  1.0000
  C   C27       1.0  0.21871  0.59451  0.23844  1.0000
  H   H30       1.0  0.21156  0.57022  0.29800  1.0000
  C   C28       1.0  0.37526  0.78061  0.23854  1.0000
  H   H31       1.0  0.35807  0.78774  0.29806  1.0000
  C   C29       1.0  0.63087  0.35344  0.42786  1.0000
  C   C30       1.0  0.64591  0.27732  0.42794  1.0000
  C   C31       1.0  0.70105  0.31307  0.42751  1.0000
  C   C32       1.0  0.72203  0.36848  0.42786  1.0000
  C   C33       1.0  0.68627  0.38787  0.42742  1.0000
  H   H32       1.0  0.72617  0.29817  0.42566  1.0000
  H   H33       1.0  0.70118  0.42789  0.42549  1.0000
  C   C34       1.0  0.59211  0.37253  0.42469  1.0000
  H   H34       1.0  0.56248  0.35209  0.47678  1.0000
  C   C35       1.0  0.77987  0.40723  0.42475  1.0000
  H   H35       1.0  0.78906  0.43685  0.47687  1.0000
  C   C36       1.0  0.62682  0.21948  0.42486  1.0000
  H   H36       1.0  0.64719  0.21029  0.47708  1.0000
  C   C37       1.0  0.58002  0.44948  0.41354  1.0000
  C   C38       1.0  0.51182  0.48602  0.35690  1.0000
  C   C39       1.0  0.49769  0.45252  0.43319  1.0000
  C   C40       1.0  0.53272  0.43482  0.46034  1.0000
  H   H37       1.0  0.52355  0.41020  0.51409  1.0000
  C   C41       1.0  0.43091  0.54921  0.35417  1.0000
  N   N7        1.0  0.46222  0.52929  0.37781  1.0000
  H   H38       1.0  0.41844  0.56533  0.40216  1.0000
  C   C42       1.0  0.44697  0.43356  0.48200  1.0000
  H   H39       1.0  0.44684  0.46668  0.51540  1.0000
  H   H40       1.0  0.44054  0.40413  0.53280  1.0000
  H   H41       1.0  0.41384  0.41542  0.43545  1.0000
  N   N8        1.0  0.61471  0.43060  0.43591  1.0000
  H   H42       1.0  0.62745  0.44137  0.50035  1.0000
  C   C43       1.0  0.54987  0.13044  0.41354  1.0000
  C   C44       1.0  0.51334  0.02569  0.35699  1.0000
  C   C45       1.0  0.54670  0.04504  0.43345  1.0000
  C   C46       1.0  0.56442  0.09777  0.46053  1.0000
  H   H43       1.0  0.58893  0.11320  0.51441  1.0000
  C   C47       1.0  0.44994  0.88158  0.35424  1.0000
  N   N9        1.0  0.46988  0.93281  0.37787  1.0000
  H   H44       1.0  0.43365  0.85298  0.40219  1.0000
  C   C48       1.0  0.56550  0.01321  0.48250  1.0000
  H   H45       1.0  0.53229  0.97997  0.51575  1.0000
  H   H46       1.0  0.59483  0.03618  0.53344  1.0000
  H   H47       1.0  0.58371  0.99819  0.43614  1.0000
  N   N10       1.0  0.56873  0.18401  0.43589  1.0000
  H   H48       1.0  0.55788  0.18598  0.50028  1.0000
  C   C49       1.0  0.86891  0.41932  0.41355  1.0000
  C   C50       1.0  0.97366  0.48751  0.35691  1.0000
  C   C51       1.0  0.95429  0.50163  0.43322  1.0000
  C   C52       1.0  0.90156  0.46661  0.46037  1.0000
  H   H49       1.0  0.88611  0.47578  0.51413  1.0000
  C   C53       1.0  0.11775  0.56837  0.35414  1.0000
  N   N11       1.0  0.06653  0.53707  0.37779  1.0000
  H   H50       1.0  0.14635  0.58082  0.40212  1.0000
  C   C54       1.0  0.98607  0.55234  0.48205  1.0000
  H   H51       1.0  0.01933  0.55247  0.51542  1.0000
  H   H52       1.0  0.96308  0.55877  0.53286  1.0000
  H   H53       1.0  0.00107  0.58549  0.43552  1.0000
  N   N12       1.0  0.81534  0.38463  0.43594  1.0000
  H   H54       1.0  0.81338  0.37189  0.50037  1.0000
