data_image0
_chemical_formula_structural       C3HNO2NC3HNO2NC3HNO2NCNC3H2NCNCNC2H2CNCNCNC2H2C3HNO2NC3HNO2NC3HNO2NC3HNO2NC3HNO2NC3HNO2N2CNCHC2HCHCNCNCNC3H3C3HNO2NC3HNO2NC3HNO2N
_chemical_formula_sum              "C60 H24 N36 O24"
_cell_length_a       34.571
_cell_length_b       34.571
_cell_length_c       14.4205
_cell_angle_alpha    90
_cell_angle_beta     90
_cell_angle_gamma    120

_space_group_name_H-M_alt    "P 1"
_space_group_IT_number       1

loop_
  _space_group_symop_operation_xyz
  'x, y, z'

loop_
  _atom_site_type_symbol
  _atom_site_label
  _atom_site_symmetry_multiplicity
  _atom_site_fract_x
  _atom_site_fract_y
  _atom_site_fract_z
  _atom_site_occupancy
  C   C1        1.0  0.19088  0.09468  0.38041  1.0000
  C   C2        1.0  0.21535  0.11150  0.29678  1.0000
  C   C3        1.0  0.26279  0.13614  0.29923  1.0000
  H   H1        1.0  0.27998  0.14738  0.23828  1.0000
  N   N1        1.0  0.19162  0.10251  0.21216  1.0000
  O   O1        1.0  0.19945  0.13800  0.17218  1.0000
  O   O2        1.0  0.20154  0.08035  0.15791  1.0000
  N   N2        1.0  0.14628  0.06828  0.37965  1.0000
  C   C4        1.0  0.94803  0.10626  0.38043  1.0000
  C   C5        1.0  0.93121  0.11391  0.29681  1.0000
  C   C6        1.0  0.90657  0.13670  0.29925  1.0000
  H   H2        1.0  0.89533  0.14266  0.23831  1.0000
  N   N3        1.0  0.94019  0.09916  0.21218  1.0000
  O   O3        1.0  0.90470  0.07150  0.17221  1.0000
  O   O4        1.0  0.96235  0.13124  0.15793  1.0000
  N   N4        1.0  0.97444  0.08806  0.37967  1.0000
  C   C7        1.0  0.56802  0.19704  0.37157  1.0000
  C   C8        1.0  0.58984  0.19658  0.28942  1.0000
  C   C9        1.0  0.63081  0.19652  0.29157  1.0000
  H   H3        1.0  0.57707  0.19870  0.22681  1.0000
  N   N5        1.0  0.65393  0.19883  0.20882  1.0000
  O   O5        1.0  0.66396  0.23364  0.16344  1.0000
  O   O6        1.0  0.63111  0.16550  0.15801  1.0000
  N   N6        1.0  0.53648  0.20820  0.36646  1.0000
  C   C10       1.0  0.07035  0.04780  0.37119  1.0000
  N   N7        1.0  0.03979  0.06180  0.37107  1.0000
  C   C11       1.0  0.99490  0.03260  0.37121  1.0000
  C   C12       1.0  0.11577  0.07904  0.37016  1.0000
  C   C13       1.0  0.96367  0.04678  0.37017  1.0000
  H   H4        1.0  0.93157  0.02387  0.36284  1.0000
  H   H5        1.0  0.12496  0.11114  0.36281  1.0000
  N   N8        1.0  0.49712  0.25883  0.37714  1.0000
  C   C14       1.0  0.47293  0.21356  0.38164  1.0000
  N   N9        1.0  0.42760  0.19348  0.37254  1.0000
  C   C15       1.0  0.40710  0.21809  0.35845  1.0000
  N   N10       1.0  0.43311  0.26345  0.35272  1.0000
  C   C16       1.0  0.36160  0.19893  0.34221  1.0000
  C   C17       1.0  0.49561  0.19032  0.39366  1.0000
  H   H6        1.0  0.48083  0.16087  0.42532  1.0000
  H   H7        1.0  0.35186  0.21372  0.29607  1.0000
  C   C18       1.0  0.75813  0.20371  0.36361  1.0000
  N   N11       1.0  0.78388  0.24835  0.37712  1.0000
  C   C19       1.0  0.82915  0.26942  0.38167  1.0000
  N   N12       1.0  0.84923  0.24417  0.37261  1.0000
  C   C20       1.0  0.82462  0.19906  0.35847  1.0000
  N   N13       1.0  0.77927  0.17972  0.35268  1.0000
  C   C21       1.0  0.84378  0.17272  0.34226  1.0000
  C   C22       1.0  0.71225  0.18466  0.35593  1.0000
  H   H8        1.0  0.69447  0.15467  0.32714  1.0000
  H   H9        1.0  0.82899  0.14819  0.29614  1.0000
  C   C23       1.0  0.28678  0.14398  0.38313  1.0000
  C   C24       1.0  0.26190  0.12643  0.46529  1.0000
  C   C25       1.0  0.21448  0.10210  0.46507  1.0000
  H   H10       1.0  0.27846  0.13135  0.52687  1.0000
  N   N14       1.0  0.18983  0.08503  0.54811  1.0000
  O   O7        1.0  0.19893  0.05808  0.58723  1.0000
  O   O8        1.0  0.19738  0.11592  0.60401  1.0000
  N   N15       1.0  0.33162  0.16534  0.38840  1.0000
  C   C26       1.0  0.89874  0.15286  0.38316  1.0000
  C   C27       1.0  0.91629  0.14554  0.46532  1.0000
  C   C28       1.0  0.94063  0.12245  0.46510  1.0000
  H   H11       1.0  0.91139  0.15719  0.52689  1.0000
  N   N16       1.0  0.95769  0.11486  0.54813  1.0000
  O   O9        1.0  0.98465  0.15092  0.58723  1.0000
  O   O10       1.0  0.92681  0.09154  0.60404  1.0000
  N   N17       1.0  0.87738  0.17634  0.38843  1.0000
  C   C29       1.0  0.65073  0.19745  0.37824  1.0000
  C   C30       1.0  0.62962  0.19900  0.46143  1.0000
  C   C31       1.0  0.58820  0.19815  0.45726  1.0000
  H   H12       1.0  0.57453  0.20195  0.51712  1.0000
  N   N18       1.0  0.65160  0.20348  0.54701  1.0000
  O   O11       1.0  0.66083  0.23935  0.58722  1.0000
  O   O12       1.0  0.62818  0.17148  0.60047  1.0000
  N   N19       1.0  0.69296  0.20643  0.38231  1.0000
  C   C32       1.0  0.93645  0.85182  0.38050  1.0000
  C   C33       1.0  0.92883  0.82736  0.29686  1.0000
  C   C34       1.0  0.90604  0.77992  0.29930  1.0000
  H   H13       1.0  0.90009  0.76273  0.23835  1.0000
  N   N20       1.0  0.94359  0.85109  0.21225  1.0000
  O   O13       1.0  0.97127  0.84327  0.17231  1.0000
  O   O14       1.0  0.91153  0.84118  0.15798  1.0000
  N   N21       1.0  0.95466  0.89642  0.37976  1.0000
  C   C35       1.0  0.84569  0.38103  0.37147  1.0000
  C   C36       1.0  0.84611  0.40331  0.28935  1.0000
  C   C37       1.0  0.84616  0.44433  0.29155  1.0000
  H   H14       1.0  0.84396  0.38843  0.22673  1.0000
  N   N22       1.0  0.84382  0.46515  0.20883  1.0000
  O   O15       1.0  0.80898  0.44035  0.16351  1.0000
  O   O16       1.0  0.87713  0.47566  0.15794  1.0000
  N   N23       1.0  0.83457  0.33834  0.36632  1.0000
  C   C38       1.0  0.66170  0.47468  0.37160  1.0000
  C   C39       1.0  0.63941  0.45284  0.28946  1.0000
  C   C40       1.0  0.59839  0.41188  0.29162  1.0000
  H   H15       1.0  0.65430  0.46561  0.22684  1.0000
  N   N24       1.0  0.57758  0.38875  0.20888  1.0000
  O   O17       1.0  0.60236  0.37872  0.16352  1.0000
  O   O18       1.0  0.56707  0.41157  0.15803  1.0000
  N   N25       1.0  0.70439  0.50623  0.36649  1.0000
  N   N26       1.0  0.98091  0.98804  0.37104  1.0000
  C   C41       1.0  0.01011  0.97236  0.37115  1.0000
  N   N27       1.0  0.05466  0.00292  0.37102  1.0000
  C   C42       1.0  0.99592  0.92694  0.37006  1.0000
  H   H16       1.0  0.01883  0.91775  0.36253  1.0000
  C   C43       1.0  0.47823  0.28458  0.36368  1.0000
  C   C44       1.0  0.50507  0.33046  0.35601  1.0000
  H   H17       1.0  0.49286  0.34825  0.32723  1.0000
  C   C45       1.0  0.85238  0.31534  0.39377  1.0000
  H   H18       1.0  0.88175  0.32999  0.42580  1.0000
  C   C46       1.0  0.83902  0.56448  0.36370  1.0000
  N   N28       1.0  0.79438  0.54558  0.37717  1.0000
  C   C47       1.0  0.77330  0.56977  0.38169  1.0000
  N   N29       1.0  0.79854  0.61510  0.37260  1.0000
  C   C48       1.0  0.84366  0.63561  0.35849  1.0000
  N   N30       1.0  0.86301  0.60960  0.35274  1.0000
  C   C49       1.0  0.86999  0.68111  0.34226  1.0000
  C   C50       1.0  0.85807  0.53765  0.35600  1.0000
  C   C51       1.0  0.72737  0.54708  0.39373  1.0000
  H   H19       1.0  0.71270  0.56185  0.42544  1.0000
  H   H20       1.0  0.88806  0.54986  0.32719  1.0000
  H   H21       1.0  0.89451  0.69084  0.29612  1.0000
  C   C52       1.0  0.88986  0.75592  0.38320  1.0000
  C   C53       1.0  0.89716  0.78080  0.46536  1.0000
  C   C54       1.0  0.92025  0.82822  0.46515  1.0000
  H   H22       1.0  0.88550  0.76423  0.52692  1.0000
  N   N31       1.0  0.92781  0.85286  0.54818  1.0000
  O   O19       1.0  0.89175  0.84376  0.58726  1.0000
  O   O20       1.0  0.95113  0.84530  0.60413  1.0000
  N   N32       1.0  0.86638  0.71109  0.38845  1.0000
  C   C55       1.0  0.84528  0.46334  0.37824  1.0000
  C   C56       1.0  0.84378  0.44068  0.46140  1.0000
  C   C57       1.0  0.84463  0.40011  0.45720  1.0000
  H   H23       1.0  0.84087  0.38265  0.51705  1.0000
  N   N33       1.0  0.83934  0.45818  0.54703  1.0000
  O   O21       1.0  0.80349  0.43154  0.58730  1.0000
  O   O22       1.0  0.87137  0.46678  0.60041  1.0000
  N   N34       1.0  0.83630  0.49658  0.38236  1.0000
  C   C58       1.0  0.57938  0.39198  0.37829  1.0000
  C   C59       1.0  0.60204  0.41310  0.46147  1.0000
  C   C60       1.0  0.64262  0.45451  0.45731  1.0000
  H   H24       1.0  0.66008  0.46819  0.51716  1.0000
  N   N35       1.0  0.58454  0.39112  0.54707  1.0000
  O   O23       1.0  0.61117  0.38190  0.58730  1.0000
  O   O24       1.0  0.57595  0.41455  0.60051  1.0000
  N   N36       1.0  0.54613  0.34974  0.38236  1.0000
