data_image0
_chemical_formula_structural       C16H16C3HCH3CHC3HCH3CHC3NC3NC5NC5NC36H26N4C3HCH3CHC3HCH3CH
_chemical_formula_sum              "C88 H62 N8"
_cell_length_a       34.3153
_cell_length_b       34.3135
_cell_length_c       14.6951
_cell_angle_alpha    90
_cell_angle_beta     90
_cell_angle_gamma    89.9342

_space_group_name_H-M_alt    "P 1"
_space_group_IT_number       1

loop_
  _space_group_symop_operation_xyz
  'x, y, z'

loop_
  _atom_site_type_symbol
  _atom_site_label
  _atom_site_symmetry_multiplicity
  _atom_site_fract_x
  _atom_site_fract_y
  _atom_site_fract_z
  _atom_site_occupancy
  C   C1        1.0  0.17957  0.01635  0.29832  1.0000
  C   C2        1.0  0.22065  0.01597  0.29884  1.0000
  C   C3        1.0  0.34664  0.03601  0.33603  1.0000
  C   C4        1.0  0.30555  0.03653  0.33643  1.0000
  C   C5        1.0  0.00940  0.17558  0.29523  1.0000
  C   C6        1.0  0.00943  0.21666  0.29466  1.0000
  C   C7        1.0  0.98793  0.30167  0.32445  1.0000
  C   C8        1.0  0.98798  0.34275  0.32294  1.0000
  C   C9        1.0  0.80721  0.00675  0.29483  1.0000
  C   C10       1.0  0.84829  0.00615  0.29520  1.0000
  C   C11       1.0  0.72208  0.98628  0.32516  1.0000
  C   C12       1.0  0.68100  0.98676  0.32383  1.0000
  C   C13       1.0  0.01946  0.84450  0.29806  1.0000
  C   C14       1.0  0.01888  0.80342  0.29831  1.0000
  C   C15       1.0  0.03739  0.67703  0.33421  1.0000
  C   C16       1.0  0.03842  0.71810  0.33488  1.0000
  H   H1        1.0  0.05909  0.66223  0.30129  1.0000
  H   H2        1.0  0.06143  0.73174  0.30417  1.0000
  H   H3        1.0  0.02429  0.78914  0.23849  1.0000
  H   H4        1.0  0.02567  0.85881  0.23869  1.0000
  H   H5        1.0  0.86280  0.00108  0.23549  1.0000
  H   H6        1.0  0.79320  0.00259  0.23416  1.0000
  H   H7        1.0  0.00464  0.16096  0.23554  1.0000
  H   H8        1.0  0.00517  0.23058  0.23390  1.0000
  H   H9        1.0  0.96722  0.35671  0.28517  1.0000
  H   H10       1.0  0.96654  0.28740  0.28925  1.0000
  H   H11       1.0  0.29163  0.05942  0.30577  1.0000
  H   H12       1.0  0.36116  0.05794  0.30337  1.0000
  H   H13       1.0  0.23495  0.02162  0.23919  1.0000
  H   H14       1.0  0.16529  0.02269  0.23897  1.0000
  H   H15       1.0  0.73614  0.96469  0.29005  1.0000
  H   H16       1.0  0.66685  0.96611  0.28625  1.0000
  C   C17       1.0  0.00450  0.46974  0.35176  1.0000
  C   C18       1.0  0.00093  0.49489  0.27504  1.0000
  C   C19       1.0  0.00847  0.53521  0.28595  1.0000
  H   H17       1.0  0.00647  0.55312  0.23019  1.0000
  C   C20       1.0  0.99046  0.48141  0.18174  1.0000
  H   H18       1.0  0.98684  0.44996  0.17653  1.0000
  H   H19       1.0  0.01333  0.48976  0.13390  1.0000
  H   H20       1.0  0.96318  0.49510  0.16062  1.0000
  C   C21       1.0  0.99487  0.43037  0.34777  1.0000
  H   H21       1.0  0.96852  0.42342  0.32507  1.0000
  C   C22       1.0  0.55419  0.00442  0.35292  1.0000
  C   C23       1.0  0.52899  0.00092  0.27626  1.0000
  C   C24       1.0  0.48866  0.00838  0.28738  1.0000
  H   H22       1.0  0.47072  0.00637  0.23169  1.0000
  C   C25       1.0  0.54245  0.99057  0.18285  1.0000
  H   H23       1.0  0.57391  0.98706  0.17748  1.0000
  H   H24       1.0  0.53394  0.01346  0.13516  1.0000
  H   H25       1.0  0.52888  0.96327  0.16165  1.0000
  C   C26       1.0  0.59352  0.99455  0.34880  1.0000
  H   H26       1.0  0.60031  0.96815  0.32604  1.0000
  C   C27       1.0  0.08480  0.90824  0.37825  1.0000
  C   C28       1.0  0.11365  0.93626  0.37766  1.0000
  C   C29       1.0  0.09598  0.97298  0.37811  1.0000
  N   N1        1.0  0.05706  0.96567  0.37790  1.0000
  C   C30       1.0  0.04861  0.92699  0.37784  1.0000
  C   C31       1.0  0.01183  0.90764  0.37794  1.0000
  C   C32       1.0  0.97520  0.92716  0.37766  1.0000
  N   N2        1.0  0.96812  0.96599  0.37767  1.0000
  C   C33       1.0  0.92951  0.97423  0.37703  1.0000
  C   C34       1.0  0.91057  0.93822  0.37677  1.0000
  C   C35       1.0  0.93862  0.90933  0.37657  1.0000
  C   C36       1.0  0.91109  0.01142  0.37709  1.0000
  C   C37       1.0  0.93148  0.04762  0.37726  1.0000
  N   N3        1.0  0.97039  0.05491  0.37739  1.0000
  C   C38       1.0  0.97881  0.09359  0.37705  1.0000
  C   C39       1.0  0.94264  0.11235  0.37699  1.0000
  C   C40       1.0  0.91378  0.08432  0.37660  1.0000
  C   C41       1.0  0.01559  0.11291  0.37736  1.0000
  C   C42       1.0  0.05223  0.09342  0.37784  1.0000
  N   N4        1.0  0.05934  0.05459  0.37760  1.0000
  C   C43       1.0  0.09795  0.04638  0.37794  1.0000
  C   C44       1.0  0.11684  0.08243  0.37881  1.0000
  C   C45       1.0  0.08877  0.11130  0.37809  1.0000
  C   C46       1.0  0.11639  0.00919  0.37815  1.0000
  C   C47       1.0  0.15820  0.00826  0.37835  1.0000
  C   C48       1.0  0.24192  0.00705  0.37890  1.0000
  C   C49       1.0  0.22024  0.99864  0.45862  1.0000
  C   C50       1.0  0.17915  0.99950  0.45861  1.0000
  C   C51       1.0  0.28377  0.00660  0.37914  1.0000
  C   C52       1.0  0.30497  0.97601  0.42108  1.0000
  C   C53       1.0  0.34607  0.97523  0.41972  1.0000
  C   C54       1.0  0.36759  0.00542  0.37823  1.0000
  C   C55       1.0  0.01584  0.15469  0.37672  1.0000
  C   C56       1.0  0.01619  0.23844  0.37515  1.0000
  C   C57       1.0  0.02286  0.21717  0.45643  1.0000
  C   C58       1.0  0.02253  0.17608  0.45740  1.0000
  C   C59       1.0  0.01617  0.28035  0.37430  1.0000
  C   C60       1.0  0.01634  0.36431  0.37141  1.0000
  C   C61       1.0  0.04474  0.34324  0.42061  1.0000
  C   C62       1.0  0.04452  0.30214  0.42259  1.0000
  C   C63       1.0  0.86932  0.01238  0.37656  1.0000
  C   C64       1.0  0.84809  0.01949  0.45728  1.0000
  C   C65       1.0  0.80700  0.02040  0.45649  1.0000
  C   C66       1.0  0.78558  0.01390  0.37539  1.0000
  C   C67       1.0  0.74367  0.01435  0.37475  1.0000
  C   C68       1.0  0.65972  0.01541  0.37223  1.0000
  C   C69       1.0  0.68106  0.04362  0.42122  1.0000
  C   C70       1.0  0.72216  0.04297  0.42300  1.0000
  C   C71       1.0  0.01150  0.86582  0.37823  1.0000
  C   C72       1.0  0.00273  0.84483  0.45842  1.0000
  C   C73       1.0  0.00983  0.78212  0.37822  1.0000
  C   C74       1.0  0.00168  0.80375  0.45818  1.0000
  C   C75       1.0  0.00885  0.74027  0.37806  1.0000
  C   C76       1.0  0.97804  0.71946  0.42003  1.0000
  C   C77       1.0  0.97674  0.67838  0.41838  1.0000
  C   C78       1.0  0.00660  0.65647  0.37653  1.0000
  H   H27       1.0  0.95371  0.66447  0.44844  1.0000
  H   H28       1.0  0.95554  0.73414  0.45036  1.0000
  H   H29       1.0  0.99554  0.78970  0.51789  1.0000
  H   H30       1.0  0.99687  0.85940  0.51767  1.0000
  H   H31       1.0  0.08999  0.87891  0.37864  1.0000
  H   H32       1.0  0.14282  0.93022  0.37726  1.0000
  H   H33       1.0  0.03755  0.98576  0.37799  1.0000
  H   H34       1.0  0.98990  0.03482  0.37767  1.0000
  H   H35       1.0  0.93275  0.88014  0.37575  1.0000
  H   H36       1.0  0.88121  0.93325  0.37649  1.0000
  H   H37       1.0  0.86246  0.02396  0.51742  1.0000
  H   H38       1.0  0.79279  0.02502  0.51675  1.0000
  H   H39       1.0  0.88460  0.09034  0.37603  1.0000
  H   H40       1.0  0.93746  0.14169  0.37709  1.0000
  H   H41       1.0  0.14618  0.08745  0.37976  1.0000
  H   H42       1.0  0.09459  0.14050  0.37818  1.0000
  H   H43       1.0  0.02716  0.16180  0.51762  1.0000
  H   H44       1.0  0.02725  0.23149  0.51663  1.0000
  H   H45       1.0  0.06607  0.28820  0.45809  1.0000
  H   H46       1.0  0.06602  0.35780  0.45561  1.0000
  H   H47       1.0  0.16456  0.99370  0.51783  1.0000
  H   H48       1.0  0.23427  0.99265  0.51846  1.0000
  H   H49       1.0  0.36027  0.95232  0.44965  1.0000
  H   H50       1.0  0.29058  0.95330  0.45113  1.0000
  H   H51       1.0  0.73632  0.06439  0.45835  1.0000
  H   H52       1.0  0.66671  0.06509  0.45619  1.0000
  N   N5        1.0  0.40648  0.00247  0.37675  1.0000
  N   N6        1.0  0.00324  0.61761  0.37507  1.0000
  N   N7        1.0  0.62076  0.01834  0.37226  1.0000
  N   N8        1.0  0.01889  0.40328  0.37124  1.0000
  C   C79       1.0  0.01938  0.55142  0.37062  1.0000
  C   C80       1.0  0.02319  0.52634  0.44723  1.0000
  C   C81       1.0  0.01543  0.48605  0.43647  1.0000
  H   H53       1.0  0.01750  0.46819  0.49225  1.0000
  C   C82       1.0  0.03458  0.54000  0.53970  1.0000
  H   H54       1.0  0.03925  0.57136  0.54352  1.0000
  H   H55       1.0  0.06155  0.52561  0.56046  1.0000
  H   H56       1.0  0.01172  0.53262  0.58842  1.0000
  C   C83       1.0  0.02932  0.59061  0.37313  1.0000
  H   H57       1.0  0.05747  0.59738  0.37445  1.0000
  C   C84       1.0  0.47246  0.01916  0.37217  1.0000
  C   C85       1.0  0.49761  0.02304  0.44864  1.0000
  C   C86       1.0  0.53792  0.01534  0.43769  1.0000
  H   H58       1.0  0.55581  0.01737  0.49342  1.0000
  C   C87       1.0  0.48398  0.03440  0.54118  1.0000
  H   H59       1.0  0.45261  0.03906  0.54513  1.0000
  H   H60       1.0  0.49830  0.06138  0.56191  1.0000
  H   H61       1.0  0.49146  0.01153  0.58985  1.0000
  C   C88       1.0  0.43318  0.02880  0.37496  1.0000
  H   H62       1.0  0.42611  0.05690  0.37644  1.0000
