data_image0
_chemical_formula_structural       C5H3CH3C5H3CH3C5H3CH3C5H3CH3C5H3CH3C5H3CH3C3H3CH3C3H3CH3C3H3CH3C3H3CH3C3H3CH3C3H3CH3C5H3CH3C5H3CH3C5H3CH3C5H3CH3C5H3CH3C5H3CH3CNCNCNCNCNCNCNCNCNCNCNCNCNCNCNCNCNCNCNCNCNCNCNCNCNCNCNCNCNCNCNCNCNCNCNCNC3H3CH3C3H3CH3C3H3CH3C3H3CH3C3H3CH3C3H3CH3C5H3CH3C5H3CH3C5H3CH3C5H3CH3C5H3CH3C5H3CH3C3H3CH3C3H3CH3C3H3CH3C3H3CH3C3H3CH3C3H3CH3
_chemical_formula_sum              "C216 H216 N36"
_cell_length_a       39.4938
_cell_length_b       39.4938
_cell_length_c       14.8114
_cell_angle_alpha    90
_cell_angle_beta     90
_cell_angle_gamma    120

_space_group_name_H-M_alt    "P 1"
_space_group_IT_number       1

loop_
  _space_group_symop_operation_xyz
  'x, y, z'

loop_
  _atom_site_type_symbol
  _atom_site_label
  _atom_site_symmetry_multiplicity
  _atom_site_fract_x
  _atom_site_fract_y
  _atom_site_fract_z
  _atom_site_occupancy
  C   C1        1.0  0.27267  0.46002  0.34530  1.0000
  C   C2        1.0  0.25404  0.45930  0.26188  1.0000
  C   C3        1.0  0.21783  0.45962  0.26212  1.0000
  C   C4        1.0  0.20010  0.46048  0.34565  1.0000
  C   C5        1.0  0.19753  0.45985  0.17624  1.0000
  H   H1        1.0  0.21113  0.45807  0.11403  1.0000
  H   H2        1.0  0.19617  0.48674  0.17230  1.0000
  H   H3        1.0  0.16779  0.43496  0.17592  1.0000
  C   C6        1.0  0.27250  0.45898  0.17341  1.0000
  H   H4        1.0  0.29970  0.45842  0.17850  1.0000
  H   H5        1.0  0.27905  0.48508  0.13472  1.0000
  H   H6        1.0  0.25246  0.43298  0.13503  1.0000
  C   C7        1.0  0.57416  0.83408  0.34528  1.0000
  C   C8        1.0  0.57487  0.81616  0.26188  1.0000
  C   C9        1.0  0.57455  0.77963  0.26213  1.0000
  C   C10       1.0  0.57369  0.76104  0.34566  1.0000
  C   C11       1.0  0.57432  0.75910  0.17625  1.0000
  H   H7        1.0  0.57609  0.77447  0.11403  1.0000
  H   H8        1.0  0.54743  0.73085  0.17232  1.0000
  H   H9        1.0  0.59921  0.75426  0.17593  1.0000
  C   C12       1.0  0.57520  0.83495  0.17340  1.0000
  H   H10       1.0  0.57576  0.86270  0.17849  1.0000
  H   H11       1.0  0.54909  0.81539  0.13472  1.0000
  H   H12       1.0  0.60119  0.84089  0.13503  1.0000
  C   C13       1.0  0.20008  0.76150  0.34530  1.0000
  C   C14       1.0  0.21801  0.78013  0.26189  1.0000
  C   C15       1.0  0.25454  0.81634  0.26212  1.0000
  C   C16       1.0  0.27312  0.83406  0.34566  1.0000
  C   C17       1.0  0.27507  0.83663  0.17624  1.0000
  H   H13       1.0  0.25970  0.82303  0.11403  1.0000
  H   H14       1.0  0.30332  0.83800  0.17231  1.0000
  H   H15       1.0  0.27991  0.86637  0.17592  1.0000
  C   C18       1.0  0.19922  0.76167  0.17341  1.0000
  H   H16       1.0  0.17145  0.73448  0.17849  1.0000
  H   H17       1.0  0.21877  0.75511  0.13472  1.0000
  H   H18       1.0  0.19328  0.78172  0.13503  1.0000
  C   C19       1.0  0.75860  0.57704  0.34531  1.0000
  C   C20       1.0  0.77723  0.57775  0.26189  1.0000
  C   C21       1.0  0.81344  0.57743  0.26214  1.0000
  C   C22       1.0  0.83117  0.57658  0.34567  1.0000
  C   C23       1.0  0.83373  0.57720  0.17625  1.0000
  H   H19       1.0  0.82013  0.57898  0.11403  1.0000
  H   H20       1.0  0.83510  0.55032  0.17231  1.0000
  H   H21       1.0  0.86347  0.60210  0.17593  1.0000
  C   C24       1.0  0.75876  0.57807  0.17342  1.0000
  H   H22       1.0  0.73156  0.57863  0.17850  1.0000
  H   H23       1.0  0.75221  0.55197  0.13474  1.0000
  H   H24       1.0  0.77880  0.60406  0.13503  1.0000
  C   C25       1.0  0.45711  0.20297  0.34528  1.0000
  C   C26       1.0  0.45640  0.22089  0.26188  1.0000
  C   C27       1.0  0.45672  0.25742  0.26212  1.0000
  C   C28       1.0  0.45758  0.27602  0.34565  1.0000
  C   C29       1.0  0.45696  0.27795  0.17624  1.0000
  H   H25       1.0  0.45518  0.26258  0.11403  1.0000
  H   H26       1.0  0.48384  0.30620  0.17231  1.0000
  H   H27       1.0  0.43206  0.28280  0.17592  1.0000
  C   C30       1.0  0.45607  0.20211  0.17340  1.0000
  H   H28       1.0  0.45551  0.17435  0.17849  1.0000
  H   H29       1.0  0.48218  0.22166  0.13472  1.0000
  H   H30       1.0  0.43008  0.19616  0.13502  1.0000
  C   C31       1.0  0.83118  0.27555  0.34528  1.0000
  C   C32       1.0  0.81325  0.25692  0.26189  1.0000
  C   C33       1.0  0.77672  0.22070  0.26213  1.0000
  C   C34       1.0  0.75814  0.20298  0.34566  1.0000
  C   C35       1.0  0.75620  0.20041  0.17625  1.0000
  H   H31       1.0  0.77157  0.21400  0.11403  1.0000
  H   H32       1.0  0.72794  0.19904  0.17231  1.0000
  H   H33       1.0  0.75135  0.17067  0.17593  1.0000
  C   C36       1.0  0.83204  0.27538  0.17341  1.0000
  H   H34       1.0  0.85979  0.30258  0.17849  1.0000
  H   H35       1.0  0.81248  0.28192  0.13472  1.0000
  H   H36       1.0  0.83799  0.25534  0.13503  1.0000
  C   C37       1.0  0.14965  0.56766  0.26213  1.0000
  C   C38       1.0  0.14980  0.60398  0.26215  1.0000
  C   C39       1.0  0.14938  0.54884  0.17350  1.0000
  H   H37       1.0  0.14980  0.52158  0.17896  1.0000
  H   H38       1.0  0.17511  0.56854  0.13403  1.0000
  H   H39       1.0  0.12316  0.54227  0.13538  1.0000
  C   C40       1.0  0.14970  0.62256  0.17339  1.0000
  H   H40       1.0  0.15060  0.65048  0.17863  1.0000
  H   H41       1.0  0.12333  0.60310  0.13550  1.0000
  H   H42       1.0  0.17527  0.62817  0.13376  1.0000
  C   C41       1.0  0.46651  0.60341  0.26217  1.0000
  C   C42       1.0  0.43019  0.56724  0.26220  1.0000
  C   C43       1.0  0.48533  0.62196  0.17354  1.0000
  H   H43       1.0  0.51259  0.64965  0.17898  1.0000
  H   H44       1.0  0.46562  0.62800  0.13409  1.0000
  H   H45       1.0  0.49189  0.60231  0.13540  1.0000
  C   C44       1.0  0.41161  0.54857  0.17344  1.0000
  H   H46       1.0  0.38368  0.52154  0.17868  1.0000
  H   H47       1.0  0.43106  0.54165  0.13555  1.0000
  H   H48       1.0  0.40600  0.56852  0.13381  1.0000
  C   C45       1.0  0.43076  0.88452  0.26216  1.0000
  C   C46       1.0  0.46694  0.88437  0.26219  1.0000
  C   C47       1.0  0.41221  0.88479  0.17352  1.0000
  H   H49       1.0  0.38453  0.88438  0.17895  1.0000
  H   H50       1.0  0.40618  0.85906  0.13405  1.0000
  H   H51       1.0  0.43187  0.91102  0.13539  1.0000
  C   C48       1.0  0.48561  0.88446  0.17344  1.0000
  H   H52       1.0  0.51263  0.88356  0.17867  1.0000
  H   H53       1.0  0.49253  0.91084  0.13554  1.0000
  H   H54       1.0  0.46565  0.85890  0.13380  1.0000
  C   C49       1.0  0.88161  0.46939  0.26215  1.0000
  C   C50       1.0  0.88147  0.43307  0.26219  1.0000
  C   C51       1.0  0.88189  0.48821  0.17352  1.0000
  H   H55       1.0  0.88147  0.51548  0.17895  1.0000
  H   H56       1.0  0.85616  0.46851  0.13404  1.0000
  H   H57       1.0  0.90812  0.49478  0.13540  1.0000
  C   C52       1.0  0.88156  0.41449  0.17344  1.0000
  H   H58       1.0  0.88066  0.38656  0.17867  1.0000
  H   H59       1.0  0.90794  0.43394  0.13555  1.0000
  H   H60       1.0  0.85600  0.40888  0.13380  1.0000
  C   C53       1.0  0.56476  0.43365  0.26216  1.0000
  C   C54       1.0  0.60108  0.46982  0.26218  1.0000
  C   C55       1.0  0.54594  0.41509  0.17353  1.0000
  H   H61       1.0  0.51868  0.38741  0.17897  1.0000
  H   H62       1.0  0.56565  0.40907  0.13405  1.0000
  H   H63       1.0  0.53937  0.43475  0.13540  1.0000
  C   C56       1.0  0.61966  0.48850  0.17343  1.0000
  H   H64       1.0  0.64758  0.51553  0.17867  1.0000
  H   H65       1.0  0.60020  0.49541  0.13553  1.0000
  H   H66       1.0  0.62527  0.46854  0.13380  1.0000
  C   C57       1.0  0.60051  0.15252  0.26214  1.0000
  C   C58       1.0  0.56434  0.15268  0.26216  1.0000
  C   C59       1.0  0.61907  0.15226  0.17352  1.0000
  H   H67       1.0  0.64675  0.15268  0.17896  1.0000
  H   H68       1.0  0.62510  0.17800  0.13406  1.0000
  H   H69       1.0  0.59941  0.12604  0.13537  1.0000
  C   C60       1.0  0.54567  0.15259  0.17340  1.0000
  H   H70       1.0  0.51865  0.15349  0.17863  1.0000
  H   H71       1.0  0.53875  0.12621  0.13551  1.0000
  H   H72       1.0  0.56563  0.17815  0.13378  1.0000
  C   C61       1.0  0.97359  0.37055  0.34499  1.0000
  C   C62       1.0  0.99462  0.37984  0.26158  1.0000
  C   C63       1.0  0.03657  0.40131  0.26173  1.0000
  C   C64       1.0  0.05746  0.41306  0.34526  1.0000
  C   C65       1.0  0.06013  0.41344  0.17588  1.0000
  H   H73       1.0  0.04346  0.40233  0.11389  1.0000
  H   H74       1.0  0.08116  0.40316  0.17699  1.0000
  H   H75       1.0  0.07608  0.44526  0.17034  1.0000
  C   C66       1.0  0.97297  0.36838  0.17337  1.0000
  H   H76       1.0  0.94127  0.35153  0.17917  1.0000
  H   H77       1.0  0.98135  0.35010  0.13511  1.0000
  H   H78       1.0  0.98003  0.39454  0.13434  1.0000
  C   C67       1.0  0.66361  0.62448  0.34496  1.0000
  C   C68       1.0  0.65432  0.63621  0.26155  1.0000
  C   C69       1.0  0.63285  0.65669  0.26170  1.0000
  C   C70       1.0  0.62113  0.66583  0.34525  1.0000
  C   C71       1.0  0.62072  0.66813  0.17585  1.0000
  H   H79       1.0  0.63183  0.66256  0.11386  1.0000
  H   H80       1.0  0.63102  0.69944  0.17696  1.0000
  H   H81       1.0  0.58890  0.65226  0.17033  1.0000
  C   C72       1.0  0.66578  0.62601  0.17334  1.0000
  H   H82       1.0  0.68262  0.61116  0.17916  1.0000
  H   H83       1.0  0.68406  0.65268  0.13509  1.0000
  H   H84       1.0  0.63961  0.60690  0.13431  1.0000
  C   C73       1.0  0.40968  0.06055  0.34509  1.0000
  C   C74       1.0  0.39798  0.03954  0.26165  1.0000
  C   C75       1.0  0.37751  0.99759  0.26179  1.0000
  C   C76       1.0  0.36832  0.97671  0.34535  1.0000
  C   C77       1.0  0.36608  0.97403  0.17593  1.0000
  H   H85       1.0  0.37167  0.99071  0.11393  1.0000
  H   H86       1.0  0.33477  0.95302  0.17700  1.0000
  H   H87       1.0  0.38194  0.95806  0.17043  1.0000
  C   C78       1.0  0.40817  0.06119  0.17343  1.0000
  H   H88       1.0  0.42301  0.09289  0.17922  1.0000
  H   H89       1.0  0.38151  0.05279  0.13515  1.0000
  H   H90       1.0  0.42730  0.05414  0.13442  1.0000
  C   C79       1.0  0.05766  0.66651  0.34507  1.0000
  C   C80       1.0  0.03666  0.65721  0.26163  1.0000
  C   C81       1.0  0.99470  0.63572  0.26177  1.0000
  C   C82       1.0  0.97380  0.62399  0.34528  1.0000
  C   C83       1.0  0.97115  0.62359  0.17591  1.0000
  H   H91       1.0  0.98782  0.63469  0.11391  1.0000
  H   H92       1.0  0.95013  0.63388  0.17698  1.0000
  H   H93       1.0  0.95519  0.59177  0.17040  1.0000
  C   C84       1.0  0.05831  0.66867  0.17341  1.0000
  H   H94       1.0  0.09001  0.68554  0.17921  1.0000
  H   H95       1.0  0.04991  0.68694  0.13515  1.0000
  H   H96       1.0  0.05127  0.64251  0.13440  1.0000
  C   C85       1.0  0.36765  0.41258  0.34497  1.0000
  C   C86       1.0  0.37694  0.40085  0.26156  1.0000
  C   C87       1.0  0.39841  0.38037  0.26173  1.0000
  C   C88       1.0  0.41016  0.37123  0.34526  1.0000
  C   C89       1.0  0.41054  0.36893  0.17587  1.0000
  H   H97       1.0  0.39942  0.37449  0.11388  1.0000
  H   H98       1.0  0.40026  0.33762  0.17699  1.0000
  H   H99       1.0  0.44236  0.38481  0.17034  1.0000
  C   C90       1.0  0.36548  0.41104  0.17335  1.0000
  H   H100      1.0  0.34864  0.42590  0.17917  1.0000
  H   H101      1.0  0.34720  0.38438  0.13509  1.0000
  H   H102      1.0  0.39165  0.43015  0.13433  1.0000
  C   C91       1.0  0.62160  0.97651  0.34498  1.0000
  C   C92       1.0  0.63330  0.99751  0.26155  1.0000
  C   C93       1.0  0.65378  0.03946  0.26170  1.0000
  C   C94       1.0  0.66293  0.06033  0.34525  1.0000
  C   C95       1.0  0.66522  0.06302  0.17585  1.0000
  H   H103      1.0  0.65965  0.04635  0.11385  1.0000
  H   H104      1.0  0.69652  0.08404  0.17695  1.0000
  H   H105      1.0  0.64935  0.07898  0.17034  1.0000
  C   C96       1.0  0.62311  0.97585  0.17334  1.0000
  H   H106      1.0  0.60826  0.94415  0.17916  1.0000
  H   H107      1.0  0.64977  0.98424  0.13507  1.0000
  H   H108      1.0  0.60400  0.98291  0.13432  1.0000
  C   C97       1.0  0.09807  0.44265  0.34488  1.0000
  N   N1        1.0  0.12883  0.43581  0.34466  1.0000
  C   C98       1.0  0.16673  0.46607  0.34518  1.0000
  N   N2        1.0  0.17326  0.50338  0.34616  1.0000
  C   C99       1.0  0.14314  0.51082  0.34642  1.0000
  N   N3        1.0  0.10599  0.48029  0.34574  1.0000
  C   C100      1.0  0.59153  0.67685  0.34488  1.0000
  N   N4        1.0  0.59837  0.71444  0.34465  1.0000
  C   C101      1.0  0.56811  0.72209  0.34518  1.0000
  N   N5        1.0  0.53080  0.69130  0.34618  1.0000
  C   C102      1.0  0.52336  0.65375  0.34644  1.0000
  N   N6        1.0  0.55389  0.64713  0.34575  1.0000
  C   C103      1.0  0.35731  0.93610  0.34490  1.0000
  N   N7        1.0  0.31972  0.90534  0.34468  1.0000
  C   C104      1.0  0.31207  0.86743  0.34517  1.0000
  N   N8        1.0  0.34287  0.86091  0.34615  1.0000
  C   C105      1.0  0.38042  0.89103  0.34640  1.0000
  N   N9        1.0  0.38703  0.92818  0.34575  1.0000
  C   C106      1.0  0.93319  0.59440  0.34490  1.0000
  N   N10       1.0  0.90244  0.60124  0.34467  1.0000
  C   C107      1.0  0.86453  0.57099  0.34517  1.0000
  N   N11       1.0  0.85801  0.53368  0.34615  1.0000
  C   C108      1.0  0.88812  0.52623  0.34640  1.0000
  N   N12       1.0  0.92527  0.55677  0.34574  1.0000
  C   C109      1.0  0.43975  0.36021  0.34488  1.0000
  N   N13       1.0  0.43291  0.32261  0.34465  1.0000
  C   C110      1.0  0.46316  0.31496  0.34518  1.0000
  N   N14       1.0  0.50048  0.34575  0.34617  1.0000
  C   C111      1.0  0.50792  0.38331  0.34644  1.0000
  N   N15       1.0  0.47739  0.38992  0.34575  1.0000
  C   C112      1.0  0.67395  0.10094  0.34488  1.0000
  N   N16       1.0  0.71154  0.13170  0.34465  1.0000
  C   C113      1.0  0.71919  0.16961  0.34518  1.0000
  N   N17       1.0  0.68839  0.17613  0.34617  1.0000
  C   C114      1.0  0.65084  0.14601  0.34642  1.0000
  N   N18       1.0  0.64423  0.10886  0.34574  1.0000
  C   C115      1.0  0.43939  0.10106  0.34495  1.0000
  N   N19       1.0  0.43254  0.13181  0.34496  1.0000
  C   C116      1.0  0.46277  0.16972  0.34524  1.0000
  N   N20       1.0  0.50009  0.17628  0.34566  1.0000
  C   C117      1.0  0.50754  0.14617  0.34581  1.0000
  N   N21       1.0  0.47703  0.10898  0.34542  1.0000
  C   C118      1.0  0.67441  0.59477  0.34493  1.0000
  N   N22       1.0  0.71201  0.60162  0.34494  1.0000
  C   C119      1.0  0.71969  0.57139  0.34526  1.0000
  N   N23       1.0  0.68892  0.53407  0.34570  1.0000
  C   C120      1.0  0.65136  0.52661  0.34584  1.0000
  N   N24       1.0  0.64468  0.55712  0.34541  1.0000
  C   C121      1.0  0.93308  0.35975  0.34492  1.0000
  N   N25       1.0  0.90233  0.32214  0.34493  1.0000
  C   C122      1.0  0.86442  0.31446  0.34525  1.0000
  N   N26       1.0  0.85786  0.34523  0.34569  1.0000
  C   C123      1.0  0.88797  0.38279  0.34584  1.0000
  N   N27       1.0  0.92516  0.38947  0.34542  1.0000
  C   C124      1.0  0.59188  0.93600  0.34492  1.0000
  N   N28       1.0  0.59873  0.90524  0.34492  1.0000
  C   C125      1.0  0.56850  0.86733  0.34524  1.0000
  N   N29       1.0  0.53118  0.86078  0.34569  1.0000
  C   C126      1.0  0.52373  0.89089  0.34583  1.0000
  N   N30       1.0  0.55424  0.92808  0.34541  1.0000
  C   C127      1.0  0.35685  0.44229  0.34494  1.0000
  N   N31       1.0  0.31925  0.43544  0.34494  1.0000
  C   C128      1.0  0.31158  0.46567  0.34526  1.0000
  N   N32       1.0  0.34234  0.50299  0.34571  1.0000
  C   C129      1.0  0.37990  0.51044  0.34585  1.0000
  N   N33       1.0  0.38658  0.47993  0.34542  1.0000
  C   C130      1.0  0.09817  0.67731  0.34493  1.0000
  N   N34       1.0  0.12892  0.71491  0.34495  1.0000
  C   C131      1.0  0.16683  0.72259  0.34524  1.0000
  N   N35       1.0  0.17339  0.69183  0.34565  1.0000
  C   C132      1.0  0.14328  0.65426  0.34580  1.0000
  N   N36       1.0  0.10609  0.64758  0.34540  1.0000
  C   C133      1.0  0.21819  0.46018  0.42898  1.0000
  C   C134      1.0  0.25445  0.45996  0.42881  1.0000
  C   C135      1.0  0.19989  0.46075  0.51772  1.0000
  H   H109      1.0  0.17221  0.46035  0.51251  1.0000
  H   H110      1.0  0.21967  0.48709  0.55535  1.0000
  H   H111      1.0  0.19394  0.43514  0.55757  1.0000
  C   C136      1.0  0.27322  0.46029  0.51755  1.0000
  H   H112      1.0  0.30021  0.45934  0.51236  1.0000
  H   H113      1.0  0.25330  0.43486  0.55759  1.0000
  H   H114      1.0  0.28023  0.48679  0.55501  1.0000
  C   C137      1.0  0.57399  0.77944  0.42898  1.0000
  C   C138      1.0  0.57421  0.81592  0.42880  1.0000
  C   C139      1.0  0.57341  0.76057  0.51772  1.0000
  H   H115      1.0  0.57382  0.73329  0.51252  1.0000
  H   H116      1.0  0.54708  0.75402  0.55534  1.0000
  H   H117      1.0  0.59903  0.78024  0.55757  1.0000
  C   C140      1.0  0.57388  0.83437  0.51754  1.0000
  H   H118      1.0  0.57483  0.86231  0.51234  1.0000
  H   H119      1.0  0.59931  0.83988  0.55757  1.0000
  H   H120      1.0  0.54738  0.81488  0.55499  1.0000
  C   C141      1.0  0.25473  0.81597  0.42899  1.0000
  C   C142      1.0  0.21825  0.77972  0.42881  1.0000
  C   C143      1.0  0.27359  0.83427  0.51772  1.0000
  H   H121      1.0  0.30088  0.86196  0.51252  1.0000
  H   H122      1.0  0.28014  0.81449  0.55536  1.0000
  H   H123      1.0  0.25393  0.84023  0.55757  1.0000
  C   C144      1.0  0.19980  0.76095  0.51754  1.0000
  H   H124      1.0  0.17185  0.73396  0.51234  1.0000
  H   H125      1.0  0.19429  0.78087  0.55758  1.0000
  H   H126      1.0  0.21928  0.75393  0.55501  1.0000
  C   C145      1.0  0.81307  0.57687  0.42900  1.0000
  C   C146      1.0  0.77681  0.57710  0.42882  1.0000
  C   C147      1.0  0.83137  0.57631  0.51773  1.0000
  H   H127      1.0  0.85905  0.57671  0.51252  1.0000
  H   H128      1.0  0.81159  0.54998  0.55536  1.0000
  H   H129      1.0  0.83732  0.60193  0.55757  1.0000
  C   C148      1.0  0.75804  0.57677  0.51756  1.0000
  H   H130      1.0  0.73105  0.57772  0.51236  1.0000
  H   H131      1.0  0.77796  0.60220  0.55760  1.0000
  H   H132      1.0  0.75103  0.55027  0.55501  1.0000
  C   C149      1.0  0.45728  0.25761  0.42898  1.0000
  C   C150      1.0  0.45706  0.22113  0.42880  1.0000
  C   C151      1.0  0.45785  0.27648  0.51771  1.0000
  H   H133      1.0  0.45745  0.30376  0.51251  1.0000
  H   H134      1.0  0.48418  0.28303  0.55534  1.0000
  H   H135      1.0  0.43224  0.25682  0.55757  1.0000
  C   C152      1.0  0.45739  0.20269  0.51754  1.0000
  H   H136      1.0  0.45644  0.17475  0.51234  1.0000
  H   H137      1.0  0.43196  0.19718  0.55758  1.0000
  H   H138      1.0  0.48389  0.22218  0.55499  1.0000
  C   C153      1.0  0.77653  0.22108  0.42898  1.0000
  C   C154      1.0  0.81301  0.25734  0.42880  1.0000
  C   C155      1.0  0.75767  0.20278  0.51772  1.0000
  H   H139      1.0  0.73039  0.17510  0.51252  1.0000
  H   H140      1.0  0.75111  0.22256  0.55534  1.0000
  H   H141      1.0  0.77733  0.19684  0.55757  1.0000
  C   C156      1.0  0.83146  0.27611  0.51754  1.0000
  H   H142      1.0  0.85940  0.30311  0.51235  1.0000
  H   H143      1.0  0.83697  0.25619  0.55757  1.0000
  H   H144      1.0  0.81197  0.28312  0.55499  1.0000
  C   C157      1.0  0.14936  0.62166  0.34596  1.0000
  C   C158      1.0  0.15026  0.60423  0.42982  1.0000
  C   C159      1.0  0.14998  0.56783  0.42975  1.0000
  C   C160      1.0  0.14904  0.54950  0.34591  1.0000
  C   C161      1.0  0.14988  0.54736  0.51567  1.0000
  H   H145      1.0  0.15171  0.56278  0.57784  1.0000
  H   H146      1.0  0.17482  0.54258  0.51579  1.0000
  H   H147      1.0  0.12304  0.51907  0.51981  1.0000
  C   C162      1.0  0.15070  0.62320  0.51814  1.0000
  H   H148      1.0  0.15128  0.65097  0.51275  1.0000
  H   H149      1.0  0.17674  0.62921  0.55642  1.0000
  H   H150      1.0  0.12464  0.60372  0.55707  1.0000
  C   C163      1.0  0.41251  0.54913  0.34601  1.0000
  C   C164      1.0  0.42994  0.56747  0.42986  1.0000
  C   C165      1.0  0.46634  0.60358  0.42979  1.0000
  C   C166      1.0  0.48468  0.62096  0.34595  1.0000
  C   C167      1.0  0.48681  0.62396  0.51569  1.0000
  H   H151      1.0  0.47138  0.61038  0.57787  1.0000
  H   H152      1.0  0.49160  0.65368  0.51580  1.0000
  H   H153      1.0  0.51509  0.62539  0.51984  1.0000
  C   C168      1.0  0.41097  0.54894  0.51818  1.0000
  H   H154      1.0  0.38321  0.52175  0.51280  1.0000
  H   H155      1.0  0.40496  0.56896  0.55645  1.0000
  H   H156      1.0  0.43045  0.54236  0.55713  1.0000
  C   C169      1.0  0.48504  0.88481  0.34601  1.0000
  C   C170      1.0  0.46670  0.88390  0.42985  1.0000
  C   C171      1.0  0.43058  0.88418  0.42977  1.0000
  C   C172      1.0  0.41320  0.88514  0.34593  1.0000
  C   C173      1.0  0.41020  0.88427  0.51567  1.0000
  H   H157      1.0  0.42378  0.88243  0.57785  1.0000
  H   H158      1.0  0.38048  0.85934  0.51577  1.0000
  H   H159      1.0  0.40877  0.91112  0.51982  1.0000
  C   C174      1.0  0.48523  0.88346  0.51818  1.0000
  H   H160      1.0  0.51242  0.88288  0.51279  1.0000
  H   H161      1.0  0.46520  0.85742  0.55644  1.0000
  H   H162      1.0  0.49180  0.90951  0.55712  1.0000
  C   C175      1.0  0.88189  0.41539  0.34601  1.0000
  C   C176      1.0  0.88099  0.43283  0.42986  1.0000
  C   C177      1.0  0.88127  0.46923  0.42978  1.0000
  C   C178      1.0  0.88222  0.48755  0.34593  1.0000
  C   C179      1.0  0.88137  0.48970  0.51568  1.0000
  H   H163      1.0  0.87954  0.47428  0.57786  1.0000
  H   H164      1.0  0.85644  0.49449  0.51580  1.0000
  H   H165      1.0  0.90822  0.51799  0.51982  1.0000
  C   C180      1.0  0.88056  0.41386  0.51818  1.0000
  H   H166      1.0  0.87997  0.38610  0.51280  1.0000
  H   H167      1.0  0.85452  0.40785  0.55646  1.0000
  H   H168      1.0  0.90661  0.43334  0.55712  1.0000
  C   C181      1.0  0.61875  0.48793  0.34600  1.0000
  C   C182      1.0  0.60132  0.46960  0.42985  1.0000
  C   C183      1.0  0.56493  0.43348  0.42977  1.0000
  C   C184      1.0  0.54660  0.41609  0.34593  1.0000
  C   C185      1.0  0.54446  0.41310  0.51569  1.0000
  H   H169      1.0  0.55988  0.42669  0.57787  1.0000
  H   H170      1.0  0.53967  0.38338  0.51581  1.0000
  H   H171      1.0  0.51617  0.41166  0.51983  1.0000
  C   C186      1.0  0.62029  0.48813  0.51818  1.0000
  H   H172      1.0  0.64805  0.51532  0.51279  1.0000
  H   H173      1.0  0.62631  0.46811  0.55646  1.0000
  H   H174      1.0  0.60081  0.49471  0.55711  1.0000
  C   C187      1.0  0.54623  0.15224  0.34596  1.0000
  C   C188      1.0  0.56456  0.15315  0.42983  1.0000
  C   C189      1.0  0.60067  0.15286  0.42976  1.0000
  C   C190      1.0  0.61806  0.15191  0.34592  1.0000
  C   C191      1.0  0.62105  0.15277  0.51567  1.0000
  H   H175      1.0  0.60747  0.15461  0.57785  1.0000
  H   H176      1.0  0.65077  0.17770  0.51578  1.0000
  H   H177      1.0  0.62248  0.12592  0.51982  1.0000
  C   C192      1.0  0.54603  0.15359  0.51814  1.0000
  H   H178      1.0  0.51885  0.15418  0.51276  1.0000
  H   H179      1.0  0.56606  0.17963  0.55641  1.0000
  H   H180      1.0  0.53945  0.12754  0.55709  1.0000
  C   C193      1.0  0.03648  0.40165  0.42863  1.0000
  C   C194      1.0  0.99454  0.38047  0.42849  1.0000
  C   C195      1.0  0.05803  0.41279  0.51722  1.0000
  H   H181      1.0  0.08974  0.42782  0.51150  1.0000
  H   H182      1.0  0.04987  0.38666  0.55731  1.0000
  H   H183      1.0  0.05076  0.43208  0.55472  1.0000
  C   C196      1.0  0.97298  0.36991  0.51706  1.0000
  H   H184      1.0  0.94128  0.35279  0.51134  1.0000
  H   H185      1.0  0.97982  0.39643  0.55428  1.0000
  H   H186      1.0  0.98151  0.35231  0.55746  1.0000
  C   C197      1.0  0.63251  0.65626  0.42864  1.0000
  C   C198      1.0  0.65369  0.63549  0.42849  1.0000
  C   C199      1.0  0.62136  0.66665  0.51722  1.0000
  H   H187      1.0  0.60634  0.68335  0.51151  1.0000
  H   H188      1.0  0.64749  0.68462  0.55734  1.0000
  H   H189      1.0  0.60206  0.64009  0.55471  1.0000
  C   C200      1.0  0.66425  0.62448  0.51706  1.0000
  H   H190      1.0  0.68137  0.60992  0.51134  1.0000
  H   H191      1.0  0.63773  0.60481  0.55428  1.0000
  H   H192      1.0  0.68184  0.65061  0.55746  1.0000
  C   C201      1.0  0.37787  0.99767  0.42873  1.0000
  C   C202      1.0  0.39863  0.03961  0.42858  1.0000
  C   C203      1.0  0.36745  0.97612  0.51729  1.0000
  H   H193      1.0  0.35076  0.94441  0.51155  1.0000
  H   H194      1.0  0.34946  0.98428  0.55737  1.0000
  H   H195      1.0  0.39400  0.98338  0.55482  1.0000
  C   C204      1.0  0.40964  0.06118  0.51714  1.0000
  H   H196      1.0  0.42421  0.09287  0.51140  1.0000
  H   H197      1.0  0.42930  0.05433  0.55438  1.0000
  H   H198      1.0  0.38350  0.05266  0.55753  1.0000
  C   C205      1.0  0.99477  0.63541  0.42868  1.0000
  C   C206      1.0  0.03671  0.65659  0.42856  1.0000
  C   C207      1.0  0.97322  0.62429  0.51725  1.0000
  H   H199      1.0  0.94151  0.60927  0.51152  1.0000
  H   H200      1.0  0.98137  0.65043  0.55732  1.0000
  H   H201      1.0  0.98048  0.60499  0.55478  1.0000
  C   C208      1.0  0.05828  0.66714  0.51712  1.0000
  H   H202      1.0  0.08997  0.68427  0.51138  1.0000
  H   H203      1.0  0.05143  0.64063  0.55434  1.0000
  H   H204      1.0  0.04975  0.68476  0.55752  1.0000
  C   C209      1.0  0.39875  0.38080  0.42863  1.0000
  C   C210      1.0  0.37757  0.40156  0.42849  1.0000
  C   C211      1.0  0.40990  0.37041  0.51722  1.0000
  H   H205      1.0  0.42493  0.35372  0.51151  1.0000
  H   H206      1.0  0.38377  0.35243  0.55732  1.0000
  H   H207      1.0  0.42919  0.39697  0.55471  1.0000
  C   C212      1.0  0.36701  0.41257  0.51707  1.0000
  H   H208      1.0  0.34988  0.42713  0.51134  1.0000
  H   H209      1.0  0.39353  0.43225  0.55427  1.0000
  H   H210      1.0  0.34942  0.38644  0.55747  1.0000
  C   C213      1.0  0.65336  0.03938  0.42865  1.0000
  C   C214      1.0  0.63260  0.99743  0.42851  1.0000
  C   C215      1.0  0.66376  0.06092  0.51722  1.0000
  H   H211      1.0  0.68045  0.09263  0.51151  1.0000
  H   H212      1.0  0.68173  0.05277  0.55734  1.0000
  H   H213      1.0  0.63720  0.05366  0.55472  1.0000
  C   C216      1.0  0.62159  0.97586  0.51708  1.0000
  H   H214      1.0  0.60703  0.94417  0.51134  1.0000
  H   H215      1.0  0.60191  0.98270  0.55429  1.0000
  H   H216      1.0  0.64772  0.98440  0.55748  1.0000
