data_image0
_chemical_formula_structural       C6H6C6H6C6H6C6H6C8H8C8H8C8H8C8H8NC12H6C3H3NC12H6C3H3NC12H6C3H3NC12H6C3H3C3NC3NC5NC5NC20H18N4C3NC3NC5NC5NC20H18N4C3NC3NC5NC5NC20H18N4C3NC3NC5NC5NC20H18N4
_chemical_formula_sum              "C260 H164 N36"
_cell_length_a       75.7821
_cell_length_b       29.7132
_cell_length_c       15.006
_cell_angle_alpha    90
_cell_angle_beta     90.0516
_cell_angle_gamma    89.9524

_space_group_name_H-M_alt    "P 1"
_space_group_IT_number       1

loop_
  _space_group_symop_operation_xyz
  'x, y, z'

loop_
  _atom_site_type_symbol
  _atom_site_label
  _atom_site_symmetry_multiplicity
  _atom_site_fract_x
  _atom_site_fract_y
  _atom_site_fract_z
  _atom_site_occupancy
  C   C1        1.0  0.16903  0.93518  0.29723  1.0000
  C   C2        1.0  0.16212  0.89200  0.31321  1.0000
  C   C3        1.0  0.21458  0.99014  0.29183  1.0000
  C   C4        1.0  0.23299  0.99432  0.30109  1.0000
  C   C5        1.0  0.17319  0.06133  0.25272  1.0000
  C   C6        1.0  0.16370  0.10159  0.24110  1.0000
  H   H1        1.0  0.16869  0.94814  0.23410  1.0000
  H   H2        1.0  0.15688  0.87468  0.26055  1.0000
  H   H3        1.0  0.20950  0.97444  0.23685  1.0000
  H   H4        1.0  0.24085  0.98144  0.25192  1.0000
  H   H5        1.0  0.17980  0.04765  0.19983  1.0000
  H   H6        1.0  0.16371  0.11650  0.17955  1.0000
  C   C7        1.0  0.86134  0.06472  0.29699  1.0000
  C   C8        1.0  0.86819  0.10799  0.31292  1.0000
  C   C9        1.0  0.81586  0.00991  0.29112  1.0000
  C   C10       1.0  0.79745  0.00582  0.30005  1.0000
  C   C11       1.0  0.85717  0.93851  0.25245  1.0000
  C   C12       1.0  0.86668  0.89830  0.24074  1.0000
  H   H7        1.0  0.86167  0.05175  0.23387  1.0000
  H   H8        1.0  0.87337  0.12535  0.26024  1.0000
  H   H9        1.0  0.82097  0.02565  0.23631  1.0000
  H   H10       1.0  0.78961  0.01883  0.25083  1.0000
  H   H11       1.0  0.85051  0.95216  0.19961  1.0000
  H   H12       1.0  0.86663  0.88337  0.17923  1.0000
  C   C13       1.0  0.66907  0.43559  0.29761  1.0000
  C   C14       1.0  0.66224  0.39231  0.31351  1.0000
  C   C15       1.0  0.71450  0.49053  0.29206  1.0000
  C   C16       1.0  0.73292  0.49460  0.30118  1.0000
  C   C17       1.0  0.67319  0.56186  0.25317  1.0000
  C   C18       1.0  0.66372  0.60216  0.24154  1.0000
  H   H13       1.0  0.66876  0.44851  0.23445  1.0000
  H   H14       1.0  0.65709  0.37488  0.26076  1.0000
  H   H15       1.0  0.70939  0.47489  0.23708  1.0000
  H   H16       1.0  0.74075  0.48168  0.25191  1.0000
  H   H17       1.0  0.67980  0.54818  0.20032  1.0000
  H   H18       1.0  0.66374  0.61706  0.17999  1.0000
  C   C19       1.0  0.36133  0.56422  0.29767  1.0000
  C   C20       1.0  0.36825  0.60740  0.31370  1.0000
  C   C21       1.0  0.31580  0.50912  0.29279  1.0000
  C   C22       1.0  0.29740  0.50501  0.30243  1.0000
  C   C23       1.0  0.35718  0.43788  0.25340  1.0000
  C   C24       1.0  0.36665  0.39759  0.24191  1.0000
  H   H19       1.0  0.36156  0.55137  0.23445  1.0000
  H   H20       1.0  0.37340  0.62481  0.26098  1.0000
  H   H21       1.0  0.32083  0.52466  0.23755  1.0000
  H   H22       1.0  0.28949  0.51778  0.25325  1.0000
  H   H23       1.0  0.35056  0.45154  0.20047  1.0000
  H   H24       1.0  0.36662  0.38263  0.18041  1.0000
  C   C25       1.0  0.38782  0.80873  0.27070  1.0000
  C   C26       1.0  0.38494  0.76200  0.27462  1.0000
  C   C27       1.0  0.31578  0.99767  0.26725  1.0000
  C   C28       1.0  0.29721  0.99809  0.26545  1.0000
  C   C29       1.0  0.38821  0.23535  0.27987  1.0000
  C   C30       1.0  0.39051  0.18842  0.28306  1.0000
  C   C31       1.0  0.46353  0.00172  0.26591  1.0000
  C   C32       1.0  0.48207  0.00151  0.26162  1.0000
  H   H25       1.0  0.48805  0.00127  0.20047  1.0000
  H   H26       1.0  0.45640  0.00161  0.20792  1.0000
  H   H27       1.0  0.39272  0.17124  0.22498  1.0000
  H   H28       1.0  0.38861  0.25097  0.21924  1.0000
  H   H29       1.0  0.32259  0.99802  0.20836  1.0000
  H   H30       1.0  0.29086  0.99883  0.20525  1.0000
  H   H31       1.0  0.38202  0.74512  0.21697  1.0000
  H   H32       1.0  0.38686  0.82481  0.21056  1.0000
  C   C33       1.0  0.64216  0.19119  0.27078  1.0000
  C   C34       1.0  0.64505  0.23793  0.27468  1.0000
  C   C35       1.0  0.71466  0.00180  0.26353  1.0000
  C   C36       1.0  0.73324  0.00134  0.26224  1.0000
  C   C37       1.0  0.64210  0.76447  0.27946  1.0000
  C   C38       1.0  0.63980  0.81140  0.28277  1.0000
  C   C39       1.0  0.56531  0.00064  0.29273  1.0000
  C   C40       1.0  0.54677  0.00097  0.29770  1.0000
  H   H33       1.0  0.53964  0.00302  0.23997  1.0000
  H   H34       1.0  0.57126  0.00246  0.23162  1.0000
  H   H35       1.0  0.63752  0.82861  0.22478  1.0000
  H   H36       1.0  0.64158  0.74885  0.21885  1.0000
  H   H37       1.0  0.70789  0.00114  0.20450  1.0000
  H   H38       1.0  0.73963  0.00031  0.20222  1.0000
  H   H39       1.0  0.64772  0.25491  0.21687  1.0000
  H   H40       1.0  0.64285  0.17521  0.21044  1.0000
  C   C41       1.0  0.88802  0.30924  0.26957  1.0000
  C   C42       1.0  0.88511  0.26252  0.27361  1.0000
  C   C43       1.0  0.81560  0.49857  0.26319  1.0000
  C   C44       1.0  0.79703  0.49906  0.26244  1.0000
  C   C45       1.0  0.88845  0.73611  0.27841  1.0000
  C   C46       1.0  0.89073  0.68917  0.28161  1.0000
  C   C47       1.0  0.96506  0.49971  0.29149  1.0000
  C   C48       1.0  0.98360  0.49927  0.29648  1.0000
  H   H41       1.0  0.99072  0.49730  0.23874  1.0000
  H   H42       1.0  0.95909  0.49804  0.23037  1.0000
  H   H43       1.0  0.89307  0.67201  0.22364  1.0000
  H   H44       1.0  0.88906  0.75179  0.21789  1.0000
  H   H45       1.0  0.82228  0.49894  0.20395  1.0000
  H   H46       1.0  0.79055  0.49982  0.20258  1.0000
  H   H47       1.0  0.88237  0.24552  0.21588  1.0000
  H   H48       1.0  0.88728  0.32520  0.20922  1.0000
  C   C49       1.0  0.14272  0.69053  0.26940  1.0000
  C   C50       1.0  0.14567  0.73723  0.27350  1.0000
  C   C51       1.0  0.21470  0.50173  0.26711  1.0000
  C   C52       1.0  0.23327  0.50124  0.26593  1.0000
  C   C53       1.0  0.14200  0.26378  0.27864  1.0000
  C   C54       1.0  0.13967  0.31070  0.28169  1.0000
  C   C55       1.0  0.06682  0.49757  0.26455  1.0000
  C   C56       1.0  0.04828  0.49788  0.26034  1.0000
  H   H49       1.0  0.04226  0.49800  0.19921  1.0000
  H   H50       1.0  0.07392  0.49749  0.20654  1.0000
  H   H51       1.0  0.13740  0.32782  0.22358  1.0000
  H   H52       1.0  0.14150  0.24808  0.21811  1.0000
  H   H53       1.0  0.20795  0.50170  0.20800  1.0000
  H   H54       1.0  0.23968  0.50082  0.20592  1.0000
  H   H55       1.0  0.14860  0.75414  0.21593  1.0000
  H   H56       1.0  0.14369  0.67446  0.20926  1.0000
  N   N1        1.0  0.18470  0.00207  0.34894  1.0000
  C   C57       1.0  0.20317  0.00718  0.35788  1.0000
  C   C58       1.0  0.17688  0.95990  0.36687  1.0000
  C   C59       1.0  0.17406  0.04065  0.33713  1.0000
  C   C60       1.0  0.16290  0.87238  0.39931  1.0000
  C   C61       1.0  0.17055  0.89799  0.46904  1.0000
  C   C62       1.0  0.17744  0.94116  0.45313  1.0000
  C   C63       1.0  0.24047  0.01561  0.37681  1.0000
  C   C64       1.0  0.22884  0.03285  0.44240  1.0000
  C   C65       1.0  0.21046  0.02868  0.43313  1.0000
  C   C66       1.0  0.15508  0.12223  0.31402  1.0000
  C   C67       1.0  0.15571  0.10089  0.39829  1.0000
  C   C68       1.0  0.16506  0.06035  0.40960  1.0000
  H   H57       1.0  0.17153  0.88510  0.53216  1.0000
  H   H58       1.0  0.18316  0.95855  0.50435  1.0000
  H   H59       1.0  0.20240  0.04094  0.48208  1.0000
  H   H60       1.0  0.23365  0.04828  0.49841  1.0000
  H   H61       1.0  0.14968  0.11511  0.45243  1.0000
  H   H62       1.0  0.16576  0.04601  0.47144  1.0000
  C   C69       1.0  0.14711  0.16366  0.30238  1.0000
  C   C70       1.0  0.25861  0.01956  0.38928  1.0000
  C   C71       1.0  0.15727  0.82861  0.41636  1.0000
  H   H63       1.0  0.14016  0.16925  0.24721  1.0000
  H   H64       1.0  0.26300  0.03888  0.43884  1.0000
  H   H65       1.0  0.15928  0.81588  0.47684  1.0000
  N   N2        1.0  0.84572  0.99778  0.34875  1.0000
  C   C72       1.0  0.82723  0.99272  0.35728  1.0000
  C   C73       1.0  0.85352  0.03998  0.36664  1.0000
  C   C74       1.0  0.85635  0.95921  0.33684  1.0000
  C   C75       1.0  0.86738  0.12764  0.39897  1.0000
  C   C76       1.0  0.85978  0.10199  0.46872  1.0000
  C   C77       1.0  0.85296  0.05874  0.45286  1.0000
  C   C78       1.0  0.78992  0.98450  0.37555  1.0000
  C   C79       1.0  0.80151  0.96711  0.44124  1.0000
  C   C80       1.0  0.81991  0.97118  0.43231  1.0000
  C   C81       1.0  0.87537  0.87770  0.31360  1.0000
  C   C82       1.0  0.87478  0.89907  0.39785  1.0000
  C   C83       1.0  0.86542  0.93958  0.40922  1.0000
  H   H66       1.0  0.85878  0.11492  0.53178  1.0000
  H   H67       1.0  0.84725  0.04136  0.50406  1.0000
  H   H68       1.0  0.82794  0.95881  0.48133  1.0000
  H   H69       1.0  0.79668  0.95166  0.49712  1.0000
  H   H70       1.0  0.88087  0.88488  0.45194  1.0000
  H   H71       1.0  0.86475  0.95391  0.47108  1.0000
  C   C84       1.0  0.88338  0.83633  0.30195  1.0000
  C   C85       1.0  0.77177  0.98069  0.38774  1.0000
  C   C86       1.0  0.87290  0.17152  0.41593  1.0000
  H   H72       1.0  0.89017  0.83064  0.24640  1.0000
  H   H73       1.0  0.76735  0.96178  0.43778  1.0000
  H   H74       1.0  0.87056  0.18454  0.47584  1.0000
  N   N3        1.0  0.68465  0.50258  0.34946  1.0000
  C   C87       1.0  0.70314  0.50759  0.35825  1.0000
  C   C88       1.0  0.67683  0.46041  0.36736  1.0000
  C   C89       1.0  0.67403  0.54118  0.33758  1.0000
  C   C90       1.0  0.66301  0.37273  0.39964  1.0000
  C   C91       1.0  0.67056  0.39845  0.46948  1.0000
  C   C92       1.0  0.67736  0.44172  0.45366  1.0000
  C   C93       1.0  0.74045  0.51577  0.37689  1.0000
  C   C94       1.0  0.72886  0.53301  0.44265  1.0000
  C   C95       1.0  0.71046  0.52899  0.43351  1.0000
  C   C96       1.0  0.65509  0.62280  0.31441  1.0000
  C   C97       1.0  0.65569  0.60144  0.39867  1.0000
  C   C98       1.0  0.66501  0.56086  0.41000  1.0000
  H   H75       1.0  0.67153  0.38557  0.53261  1.0000
  H   H76       1.0  0.68305  0.45915  0.50492  1.0000
  H   H77       1.0  0.70243  0.54126  0.48256  1.0000
  H   H78       1.0  0.73369  0.54838  0.49866  1.0000
  H   H79       1.0  0.64965  0.61567  0.45279  1.0000
  H   H80       1.0  0.66572  0.54655  0.47187  1.0000
  C   C99       1.0  0.64714  0.66426  0.30279  1.0000
  C   C100      1.0  0.75860  0.51960  0.38918  1.0000
  C   C101      1.0  0.65753  0.32883  0.41655  1.0000
  H   H81       1.0  0.64026  0.66997  0.24748  1.0000
  H   H82       1.0  0.76302  0.53822  0.43970  1.0000
  H   H83       1.0  0.66002  0.31571  0.47626  1.0000
  N   N4        1.0  0.34574  0.49726  0.34938  1.0000
  C   C102      1.0  0.32727  0.49221  0.35879  1.0000
  C   C103      1.0  0.35359  0.53939  0.36741  1.0000
  C   C104      1.0  0.35635  0.45863  0.33776  1.0000
  C   C105      1.0  0.36760  0.62687  0.39995  1.0000
  C   C106      1.0  0.36007  0.60115  0.46976  1.0000
  C   C107      1.0  0.35317  0.55798  0.45379  1.0000
  C   C108      1.0  0.28999  0.48393  0.37847  1.0000
  C   C109      1.0  0.30168  0.46684  0.44404  1.0000
  C   C110      1.0  0.32006  0.47094  0.43441  1.0000
  C   C111      1.0  0.37529  0.37698  0.31489  1.0000
  C   C112      1.0  0.37469  0.39838  0.39911  1.0000
  C   C113      1.0  0.36536  0.43895  0.41029  1.0000
  H   H84       1.0  0.35918  0.61394  0.53297  1.0000
  H   H85       1.0  0.34752  0.54053  0.50507  1.0000
  H   H86       1.0  0.32816  0.45876  0.48331  1.0000
  H   H87       1.0  0.29693  0.45155  0.50027  1.0000
  H   H88       1.0  0.38073  0.38418  0.45328  1.0000
  H   H89       1.0  0.36469  0.45334  0.47210  1.0000
  C   C114      1.0  0.38323  0.33551  0.30338  1.0000
  C   C115      1.0  0.27186  0.47999  0.39122  1.0000
  C   C116      1.0  0.37322  0.67065  0.41707  1.0000
  H   H90       1.0  0.39015  0.32984  0.24821  1.0000
  H   H91       1.0  0.26752  0.46108  0.44144  1.0000
  H   H92       1.0  0.37113  0.68344  0.47740  1.0000
  C   C117      1.0  0.43604  0.91733  0.34722  1.0000
  C   C118      1.0  0.42335  0.88401  0.34622  1.0000
  C   C119      1.0  0.40678  0.90462  0.34843  1.0000
  N   N5        1.0  0.41002  0.94946  0.35078  1.0000
  C   C120      1.0  0.42750  0.95903  0.35041  1.0000
  C   C121      1.0  0.43612  0.00154  0.35325  1.0000
  C   C122      1.0  0.42746  0.04383  0.35853  1.0000
  N   N6        1.0  0.40991  0.05183  0.36006  1.0000
  C   C123      1.0  0.40628  0.09629  0.36467  1.0000
  C   C124      1.0  0.42256  0.11827  0.36679  1.0000
  C   C125      1.0  0.43562  0.08593  0.36260  1.0000
  C   C126      1.0  0.38944  0.11718  0.36557  1.0000
  C   C127      1.0  0.37304  0.09393  0.36179  1.0000
  N   N7        1.0  0.36979  0.04909  0.36062  1.0000
  C   C128      1.0  0.35232  0.03960  0.35498  1.0000
  C   C129      1.0  0.34379  0.08130  0.35332  1.0000
  C   C130      1.0  0.35646  0.11453  0.35733  1.0000
  C   C131      1.0  0.34367  0.99719  0.35162  1.0000
  C   C132      1.0  0.35234  0.95489  0.35072  1.0000
  N   N8        1.0  0.36989  0.94692  0.34972  1.0000
  C   C133      1.0  0.37353  0.90242  0.34909  1.0000
  C   C134      1.0  0.35722  0.88046  0.34975  1.0000
  C   C135      1.0  0.34416  0.91281  0.35028  1.0000
  C   C136      1.0  0.39038  0.88146  0.34815  1.0000
  C   C137      1.0  0.39062  0.83358  0.34969  1.0000
  C   C138      1.0  0.38465  0.73930  0.35723  1.0000
  C   C139      1.0  0.38836  0.76398  0.43574  1.0000
  C   C140      1.0  0.39123  0.81068  0.43208  1.0000
  C   C141      1.0  0.32490  0.99700  0.34939  1.0000
  C   C142      1.0  0.28745  0.99858  0.34547  1.0000
  C   C143      1.0  0.29663  0.99692  0.42758  1.0000
  C   C144      1.0  0.31517  0.99632  0.42959  1.0000
  C   C145      1.0  0.38892  0.16507  0.36461  1.0000
  C   C146      1.0  0.38517  0.18953  0.44306  1.0000
  C   C147      1.0  0.38277  0.23647  0.43957  1.0000
  C   C148      1.0  0.38425  0.25993  0.35814  1.0000
  C   C149      1.0  0.45487  0.00186  0.34923  1.0000
  C   C150      1.0  0.46505  0.00191  0.42812  1.0000
  C   C151      1.0  0.49230  0.00139  0.34020  1.0000
  C   C152      1.0  0.48359  0.00170  0.42361  1.0000
  H   H93       1.0  0.49068  0.00166  0.48163  1.0000
  H   H94       1.0  0.45903  0.00196  0.48916  1.0000
  H   H95       1.0  0.44933  0.91144  0.34641  1.0000
  H   H96       1.0  0.42601  0.85029  0.34399  1.0000
  H   H97       1.0  0.40094  0.97197  0.35277  1.0000
  H   H98       1.0  0.37883  0.02655  0.36467  1.0000
  H   H99       1.0  0.44885  0.09256  0.36261  1.0000
  H   H100      1.0  0.42478  0.15215  0.37002  1.0000
  H   H101      1.0  0.38353  0.17316  0.50249  1.0000
  H   H102      1.0  0.37942  0.25327  0.49669  1.0000
  H   H103      1.0  0.35376  0.14822  0.35607  1.0000
  H   H104      1.0  0.33053  0.08724  0.34899  1.0000
  H   H105      1.0  0.35494  0.84657  0.34981  1.0000
  H   H106      1.0  0.33093  0.90618  0.35101  1.0000
  H   H107      1.0  0.32152  0.99545  0.48982  1.0000
  H   H108      1.0  0.28986  0.99601  0.48650  1.0000
  H   H109      1.0  0.39286  0.82815  0.49031  1.0000
  H   H110      1.0  0.38827  0.74862  0.49666  1.0000
  N   N9        1.0  0.26995  0.99896  0.34021  1.0000
  N   N10       1.0  0.37992  0.30326  0.35792  1.0000
  N   N11       1.0  0.50968  0.00093  0.33111  1.0000
  N   N12       1.0  0.37961  0.69641  0.35622  1.0000
  C   C153      1.0  0.59437  0.08250  0.36154  1.0000
  C   C154      1.0  0.60703  0.11579  0.35631  1.0000
  C   C155      1.0  0.62358  0.09515  0.35267  1.0000
  N   N13       1.0  0.62035  0.05029  0.35499  1.0000
  C   C156      1.0  0.60290  0.04076  0.36095  1.0000
  C   C157      1.0  0.59432  0.99828  0.36633  1.0000
  C   C158      1.0  0.60300  0.95595  0.36791  1.0000
  N   N14       1.0  0.62054  0.94795  0.36521  1.0000
  C   C159      1.0  0.62421  0.90347  0.36768  1.0000
  C   C160      1.0  0.60796  0.88145  0.37250  1.0000
  C   C161      1.0  0.59488  0.91381  0.37249  1.0000
  C   C162      1.0  0.64105  0.88260  0.36533  1.0000
  C   C163      1.0  0.65742  0.90587  0.36006  1.0000
  N   N15       1.0  0.66066  0.95071  0.35810  1.0000
  C   C164      1.0  0.67810  0.96023  0.35173  1.0000
  C   C165      1.0  0.68665  0.91856  0.35021  1.0000
  C   C166      1.0  0.67399  0.88530  0.35496  1.0000
  C   C167      1.0  0.68672  0.00266  0.34740  1.0000
  C   C168      1.0  0.67802  0.04493  0.34627  1.0000
  N   N16       1.0  0.66047  0.05288  0.34734  1.0000
  C   C169      1.0  0.65681  0.09736  0.34615  1.0000
  C   C170      1.0  0.67311  0.11934  0.34407  1.0000
  C   C171      1.0  0.68618  0.08702  0.34386  1.0000
  C   C172      1.0  0.63996  0.11831  0.34807  1.0000
  C   C173      1.0  0.63973  0.16620  0.34989  1.0000
  C   C174      1.0  0.64572  0.26048  0.35739  1.0000
  C   C175      1.0  0.64235  0.23568  0.43611  1.0000
  C   C176      1.0  0.63947  0.18898  0.43246  1.0000
  C   C177      1.0  0.70549  0.00291  0.34543  1.0000
  C   C178      1.0  0.74294  0.00131  0.34251  1.0000
  C   C179      1.0  0.73372  0.00341  0.42434  1.0000
  C   C180      1.0  0.71517  0.00402  0.42585  1.0000
  C   C181      1.0  0.64157  0.83472  0.36427  1.0000
  C   C182      1.0  0.64542  0.81024  0.44261  1.0000
  C   C183      1.0  0.64782  0.76331  0.43898  1.0000
  C   C184      1.0  0.64620  0.73988  0.35757  1.0000
  C   C185      1.0  0.57556  0.99806  0.37119  1.0000
  C   C186      1.0  0.56699  0.99571  0.45458  1.0000
  C   C187      1.0  0.53814  0.99869  0.38119  1.0000
  C   C188      1.0  0.54845  0.99599  0.45935  1.0000
  H   H111      1.0  0.54252  0.99435  0.52054  1.0000
  H   H112      1.0  0.57417  0.99391  0.51227  1.0000
  H   H113      1.0  0.58112  0.08844  0.36601  1.0000
  H   H114      1.0  0.60436  0.14952  0.35618  1.0000
  H   H115      1.0  0.62942  0.02775  0.35279  1.0000
  H   H116      1.0  0.65160  0.97324  0.36188  1.0000
  H   H117      1.0  0.58167  0.90716  0.37522  1.0000
  H   H118      1.0  0.60578  0.84754  0.37538  1.0000
  H   H119      1.0  0.64717  0.82661  0.50198  1.0000
  H   H120      1.0  0.65124  0.74648  0.49600  1.0000
  H   H121      1.0  0.67671  0.85161  0.35416  1.0000
  H   H122      1.0  0.69990  0.91265  0.34541  1.0000
  H   H123      1.0  0.67538  0.15323  0.34346  1.0000
  H   H124      1.0  0.69941  0.09367  0.34292  1.0000
  H   H125      1.0  0.70879  0.00520  0.48591  1.0000
  H   H126      1.0  0.74044  0.00463  0.48341  1.0000
  H   H127      1.0  0.63814  0.17142  0.49076  1.0000
  H   H128      1.0  0.64271  0.25094  0.49710  1.0000
  N   N17       1.0  0.76046  0.00086  0.33772  1.0000
  N   N18       1.0  0.65048  0.69652  0.35730  1.0000
  N   N19       1.0  0.52076  0.99912  0.39064  1.0000
  N   N20       1.0  0.65073  0.30339  0.35623  1.0000
  C   C189      1.0  0.93598  0.41781  0.35983  1.0000
  C   C190      1.0  0.92330  0.38457  0.35456  1.0000
  C   C191      1.0  0.90676  0.40527  0.35123  1.0000
  N   N21       1.0  0.91001  0.45011  0.35379  1.0000
  C   C192      1.0  0.92747  0.45958  0.35958  1.0000
  C   C193      1.0  0.93608  0.50203  0.36509  1.0000
  C   C194      1.0  0.92742  0.54440  0.36676  1.0000
  N   N22       1.0  0.90988  0.55247  0.36385  1.0000
  C   C195      1.0  0.90624  0.59696  0.36649  1.0000
  C   C196      1.0  0.92250  0.61891  0.37164  1.0000
  C   C197      1.0  0.93556  0.58649  0.37166  1.0000
  C   C198      1.0  0.88942  0.61789  0.36399  1.0000
  C   C199      1.0  0.87303  0.59468  0.35837  1.0000
  N   N23       1.0  0.86977  0.54985  0.35664  1.0000
  C   C200      1.0  0.85232  0.54039  0.35019  1.0000
  C   C201      1.0  0.84380  0.58210  0.34818  1.0000
  C   C202      1.0  0.85647  0.61531  0.35277  1.0000
  C   C203      1.0  0.84367  0.49799  0.34631  1.0000
  C   C204      1.0  0.85234  0.45569  0.34521  1.0000
  N   N24       1.0  0.86989  0.44768  0.34593  1.0000
  C   C205      1.0  0.87352  0.40318  0.34494  1.0000
  C   C206      1.0  0.85720  0.38126  0.34329  1.0000
  C   C207      1.0  0.84415  0.41363  0.34318  1.0000
  C   C208      1.0  0.89036  0.38216  0.34673  1.0000
  C   C209      1.0  0.89056  0.33427  0.34857  1.0000
  C   C210      1.0  0.88452  0.24000  0.35638  1.0000
  C   C211      1.0  0.88801  0.26481  0.43497  1.0000
  C   C212      1.0  0.89087  0.31152  0.43118  1.0000
  C   C213      1.0  0.82489  0.49782  0.34483  1.0000
  C   C214      1.0  0.78743  0.49948  0.34298  1.0000
  C   C215      1.0  0.79679  0.49772  0.42456  1.0000
  C   C216      1.0  0.81534  0.49709  0.42554  1.0000
  C   C217      1.0  0.88892  0.66578  0.36300  1.0000
  C   C218      1.0  0.88503  0.69021  0.44132  1.0000
  C   C219      1.0  0.88265  0.73715  0.43779  1.0000
  C   C220      1.0  0.88435  0.76066  0.35652  1.0000
  C   C221      1.0  0.95483  0.50217  0.36996  1.0000
  C   C222      1.0  0.96344  0.50432  0.45338  1.0000
  C   C223      1.0  0.99226  0.50133  0.37999  1.0000
  C   C224      1.0  0.98198  0.50394  0.45816  1.0000
  H   H129      1.0  0.98793  0.50542  0.51937  1.0000
  H   H130      1.0  0.95628  0.50603  0.51108  1.0000
  H   H131      1.0  0.94924  0.41182  0.36387  1.0000
  H   H132      1.0  0.92595  0.35084  0.35399  1.0000
  H   H133      1.0  0.90095  0.47268  0.35195  1.0000
  H   H134      1.0  0.87880  0.52729  0.36118  1.0000
  H   H135      1.0  0.94878  0.59309  0.37459  1.0000
  H   H136      1.0  0.92470  0.65280  0.37471  1.0000
  H   H137      1.0  0.88321  0.67379  0.50058  1.0000
  H   H138      1.0  0.87920  0.75392  0.49478  1.0000
  H   H139      1.0  0.85377  0.64901  0.35180  1.0000
  H   H140      1.0  0.83055  0.58806  0.34318  1.0000
  H   H141      1.0  0.85491  0.34738  0.34311  1.0000
  H   H142      1.0  0.83092  0.40702  0.34276  1.0000
  H   H143      1.0  0.82181  0.49616  0.48543  1.0000
  H   H144      1.0  0.79016  0.49676  0.48387  1.0000
  H   H145      1.0  0.89232  0.32909  0.48942  1.0000
  H   H146      1.0  0.88770  0.24960  0.49601  1.0000
  N   N25       1.0  0.76992  0.49989  0.33856  1.0000
  N   N26       1.0  0.88007  0.80403  0.35638  1.0000
  N   N27       1.0  0.00964  0.50079  0.38945  1.0000
  N   N28       1.0  0.87951  0.19708  0.35536  1.0000
  C   C225      1.0  0.09441  0.58207  0.34515  1.0000
  C   C226      1.0  0.10711  0.61534  0.34413  1.0000
  C   C227      1.0  0.12367  0.59467  0.34676  1.0000
  N   N29       1.0  0.12040  0.54984  0.34932  1.0000
  C   C228      1.0  0.10292  0.54033  0.34873  1.0000
  C   C229      1.0  0.09428  0.49786  0.35177  1.0000
  C   C230      1.0  0.10292  0.45554  0.35718  1.0000
  N   N30       1.0  0.12046  0.44747  0.35844  1.0000
  C   C231      1.0  0.12406  0.40300  0.36319  1.0000
  C   C232      1.0  0.10777  0.38110  0.36573  1.0000
  C   C233      1.0  0.09473  0.41348  0.36158  1.0000
  C   C234      1.0  0.14089  0.38205  0.36388  1.0000
  C   C235      1.0  0.15730  0.40524  0.35998  1.0000
  N   N31       1.0  0.16059  0.45007  0.35913  1.0000
  C   C236      1.0  0.17805  0.45949  0.35349  1.0000
  C   C237      1.0  0.18656  0.41777  0.35137  1.0000
  C   C238      1.0  0.17386  0.38458  0.35516  1.0000
  C   C239      1.0  0.18673  0.50187  0.35061  1.0000
  C   C240      1.0  0.17808  0.54421  0.34981  1.0000
  N   N32       1.0  0.16054  0.55224  0.34838  1.0000
  C   C241      1.0  0.15692  0.59675  0.34796  1.0000
  C   C242      1.0  0.17324  0.61865  0.34916  1.0000
  C   C243      1.0  0.18629  0.58626  0.34981  1.0000
  C   C244      1.0  0.14008  0.61777  0.34671  1.0000
  C   C245      1.0  0.13987  0.66566  0.34829  1.0000
  C   C246      1.0  0.14594  0.75989  0.35616  1.0000
  C   C247      1.0  0.14216  0.73520  0.43453  1.0000
  C   C248      1.0  0.13925  0.68851  0.43072  1.0000
  C   C249      1.0  0.20550  0.50200  0.34896  1.0000
  C   C250      1.0  0.24296  0.50035  0.34625  1.0000
  C   C251      1.0  0.23371  0.50162  0.42808  1.0000
  C   C252      1.0  0.21516  0.50224  0.42948  1.0000
  C   C253      1.0  0.14139  0.33415  0.36309  1.0000
  C   C254      1.0  0.14523  0.30978  0.44158  1.0000
  C   C255      1.0  0.14765  0.26284  0.43820  1.0000
  C   C256      1.0  0.14607  0.23929  0.35691  1.0000
  C   C257      1.0  0.07552  0.49761  0.34783  1.0000
  C   C258      1.0  0.06539  0.49783  0.42676  1.0000
  C   C259      1.0  0.03809  0.49829  0.33895  1.0000
  C   C260      1.0  0.04684  0.49815  0.42233  1.0000
  H   H147      1.0  0.03978  0.49840  0.48037  1.0000
  H   H148      1.0  0.07143  0.49793  0.48778  1.0000
  H   H149      1.0  0.08112  0.58800  0.34409  1.0000
  H   H150      1.0  0.10447  0.64906  0.34169  1.0000
  H   H151      1.0  0.12947  0.52731  0.35176  1.0000
  H   H152      1.0  0.15156  0.47263  0.36367  1.0000
  H   H153      1.0  0.08150  0.40691  0.36181  1.0000
  H   H154      1.0  0.10554  0.34722  0.36909  1.0000
  H   H155      1.0  0.14699  0.32623  0.50085  1.0000
  H   H156      1.0  0.15109  0.24612  0.49530  1.0000
  H   H157      1.0  0.17655  0.35088  0.35362  1.0000
  H   H158      1.0  0.19981  0.41179  0.34691  1.0000
  H   H159      1.0  0.17553  0.65254  0.34952  1.0000
  H   H160      1.0  0.19952  0.59284  0.35101  1.0000
  H   H161      1.0  0.20876  0.50284  0.48952  1.0000
  H   H162      1.0  0.24041  0.50224  0.48724  1.0000
  H   H163      1.0  0.13758  0.67102  0.48889  1.0000
  H   H164      1.0  0.14222  0.75053  0.49548  1.0000
  N   N33       1.0  0.26047  0.49999  0.34137  1.0000
  N   N34       1.0  0.15042  0.19597  0.35679  1.0000
  N   N35       1.0  0.02071  0.49886  0.32993  1.0000
  N   N36       1.0  0.15097  0.80278  0.35532  1.0000
