data_image0
_chemical_formula_structural       C4HCH3C4HCH3C4HCH3C2H2C2H2C2H2NC18H12NC18H12NC18H12NC18H12C2H2C2H2C2H2C4HCH3C4HCH3C4HCH3
_chemical_formula_sum              "C114 H84 N4"
_cell_length_a       38.8924
_cell_length_b       38.8926
_cell_length_c       14.7933
_cell_angle_alpha    90
_cell_angle_beta     90
_cell_angle_gamma    120

_space_group_name_H-M_alt    "P 1"
_space_group_IT_number       1

loop_
  _space_group_symop_operation_xyz
  'x, y, z'

loop_
  _atom_site_type_symbol
  _atom_site_label
  _atom_site_symmetry_multiplicity
  _atom_site_fract_x
  _atom_site_fract_y
  _atom_site_fract_z
  _atom_site_occupancy
  C   C1        1.0  0.26120  0.13234  0.33804  1.0000
  C   C2        1.0  0.24007  0.14864  0.29496  1.0000
  C   C3        1.0  0.19790  0.12901  0.29327  1.0000
  C   C4        1.0  0.17546  0.09101  0.33525  1.0000
  H   H1        1.0  0.25592  0.17613  0.26591  1.0000
  C   C5        1.0  0.17853  0.14987  0.25133  1.0000
  H   H2        1.0  0.19978  0.18059  0.23315  1.0000
  H   H3        1.0  0.15727  0.15054  0.29838  1.0000
  H   H4        1.0  0.16313  0.13470  0.18971  1.0000
  C   C6        1.0  0.87424  0.12956  0.33207  1.0000
  C   C7        1.0  0.88958  0.12311  0.25058  1.0000
  C   C8        1.0  0.91201  0.10337  0.24642  1.0000
  C   C9        1.0  0.91810  0.08671  0.32671  1.0000
  H   H5        1.0  0.88414  0.13277  0.19105  1.0000
  C   C10       1.0  0.93045  0.10305  0.15823  1.0000
  H   H6        1.0  0.93026  0.12419  0.10977  1.0000
  H   H7        1.0  0.91429  0.07371  0.12761  1.0000
  H   H8        1.0  0.96139  0.11111  0.16798  1.0000
  C   C11       1.0  0.87405  0.74502  0.34909  1.0000
  C   C12       1.0  0.88354  0.76686  0.26702  1.0000
  C   C13       1.0  0.90362  0.80900  0.26298  1.0000
  C   C14       1.0  0.91771  0.83162  0.34443  1.0000
  H   H9        1.0  0.87601  0.75180  0.20712  1.0000
  C   C15       1.0  0.90714  0.82765  0.17277  1.0000
  H   H10       1.0  0.88488  0.80713  0.12497  1.0000
  H   H11       1.0  0.93630  0.83709  0.14389  1.0000
  H   H12       1.0  0.90280  0.85319  0.17840  1.0000
  C   C16       1.0  0.56884  0.17810  0.26972  1.0000
  C   C17       1.0  0.60512  0.17871  0.26002  1.0000
  H   H13       1.0  0.55750  0.18442  0.21378  1.0000
  H   H14       1.0  0.61717  0.18368  0.19670  1.0000
  C   C18       1.0  0.82422  0.39113  0.28053  1.0000
  C   C19       1.0  0.82387  0.42695  0.27190  1.0000
  H   H15       1.0  0.81822  0.37395  0.22384  1.0000
  H   H16       1.0  0.81945  0.43457  0.20865  1.0000
  C   C20       1.0  0.61247  0.43566  0.28243  1.0000
  C   C21       1.0  0.57673  0.39966  0.27105  1.0000
  H   H17       1.0  0.63030  0.44743  0.22684  1.0000
  H   H18       1.0  0.56981  0.38832  0.20709  1.0000
  N   N1        1.0  0.00516  0.00283  0.34751  1.0000
  C   C22       1.0  0.04754  0.02470  0.34423  1.0000
  C   C23       1.0  0.98460  0.96025  0.34989  1.0000
  C   C24       1.0  0.98398  0.02408  0.33994  1.0000
  C   C25       1.0  0.99085  0.05444  0.40216  1.0000
  C   C26       1.0  0.96999  0.07536  0.39624  1.0000
  C   C27       1.0  0.94015  0.06585  0.33009  1.0000
  C   C28       1.0  0.93230  0.03421  0.27036  1.0000
  C   C29       1.0  0.95441  0.01445  0.27357  1.0000
  C   C30       1.0  0.06785  0.03670  0.26089  1.0000
  C   C31       1.0  0.10971  0.05772  0.25777  1.0000
  C   C32       1.0  0.13275  0.06896  0.33791  1.0000
  C   C33       1.0  0.11208  0.05671  0.42126  1.0000
  C   C34       1.0  0.07022  0.03466  0.42435  1.0000
  C   C35       1.0  0.99418  0.93824  0.28906  1.0000
  C   C36       1.0  0.97338  0.89641  0.28994  1.0000
  C   C37       1.0  0.94026  0.87450  0.34727  1.0000
  C   C38       1.0  0.93093  0.89671  0.40862  1.0000
  C   C39       1.0  0.95303  0.93862  0.41095  1.0000
  H   H19       1.0  0.12326  0.06439  0.19593  1.0000
  H   H20       1.0  0.05212  0.02935  0.20177  1.0000
  H   H21       1.0  0.05623  0.02632  0.48561  1.0000
  H   H22       1.0  0.12746  0.06401  0.48092  1.0000
  H   H23       1.0  0.01168  0.06197  0.45184  1.0000
  H   H24       1.0  0.97687  0.09782  0.44142  1.0000
  H   H25       1.0  0.01702  0.95258  0.24430  1.0000
  H   H26       1.0  0.98282  0.88207  0.24758  1.0000
  H   H27       1.0  0.90731  0.88248  0.45164  1.0000
  H   H28       1.0  0.94498  0.95347  0.45547  1.0000
  H   H29       1.0  0.94782  0.99186  0.22906  1.0000
  H   H30       1.0  0.90963  0.02453  0.22469  1.0000
  N   N2        1.0  0.43160  0.21613  0.34327  1.0000
  C   C40       1.0  0.45442  0.25806  0.32982  1.0000
  C   C41       1.0  0.38932  0.19513  0.34198  1.0000
  C   C42       1.0  0.45391  0.19660  0.35863  1.0000
  C   C43       1.0  0.48237  0.20984  0.42877  1.0000
  C   C44       1.0  0.51297  0.20051  0.42811  1.0000
  C   C45       1.0  0.51488  0.17553  0.36093  1.0000
  C   C46       1.0  0.48439  0.16000  0.29471  1.0000
  C   C47       1.0  0.45473  0.17075  0.29283  1.0000
  C   C48       1.0  0.45444  0.28436  0.39541  1.0000
  C   C49       1.0  0.48466  0.32456  0.39659  1.0000
  C   C50       1.0  0.51704  0.33989  0.33489  1.0000
  C   C51       1.0  0.51501  0.31340  0.26611  1.0000
  C   C52       1.0  0.48397  0.27370  0.26221  1.0000
  C   C53       1.0  0.36725  0.17694  0.42087  1.0000
  C   C54       1.0  0.32535  0.15615  0.41945  1.0000
  C   C55       1.0  0.30395  0.15304  0.33932  1.0000
  C   C56       1.0  0.32647  0.17148  0.26051  1.0000
  C   C57       1.0  0.36836  0.19201  0.26170  1.0000
  H   H31       1.0  0.48346  0.34203  0.44663  1.0000
  H   H32       1.0  0.43395  0.27372  0.44644  1.0000
  H   H33       1.0  0.48567  0.25508  0.21586  1.0000
  H   H34       1.0  0.53778  0.32153  0.22130  1.0000
  H   H35       1.0  0.48367  0.23007  0.47485  1.0000
  H   H36       1.0  0.53533  0.21428  0.47442  1.0000
  H   H37       1.0  0.38172  0.17895  0.48010  1.0000
  H   H38       1.0  0.31054  0.14397  0.47853  1.0000
  H   H39       1.0  0.31248  0.16958  0.20060  1.0000
  H   H40       1.0  0.38363  0.20475  0.20345  1.0000
  H   H41       1.0  0.43551  0.16202  0.23934  1.0000
  H   H42       1.0  0.48492  0.14252  0.24366  1.0000
  N   N3        1.0  0.78804  0.21566  0.34259  1.0000
  C   C58       1.0  0.74611  0.19684  0.32698  1.0000
  C   C59       1.0  0.80925  0.19439  0.34015  1.0000
  C   C60       1.0  0.80717  0.25744  0.36057  1.0000
  C   C61       1.0  0.79346  0.27145  0.43238  1.0000
  C   C62       1.0  0.80208  0.31119  0.43482  1.0000
  C   C63       1.0  0.82694  0.33923  0.36928  1.0000
  C   C64       1.0  0.84313  0.32561  0.30170  1.0000
  C   C65       1.0  0.83285  0.28542  0.29642  1.0000
  C   C66       1.0  0.71872  0.17048  0.39099  1.0000
  C   C67       1.0  0.67863  0.16072  0.38941  1.0000
  C   C68       1.0  0.66426  0.17829  0.32674  1.0000
  C   C69       1.0  0.69169  0.20291  0.25953  1.0000
  C   C70       1.0  0.73137  0.21126  0.25830  1.0000
  C   C71       1.0  0.80690  0.16930  0.41168  1.0000
  C   C72       1.0  0.82723  0.14776  0.40812  1.0000
  C   C73       1.0  0.85251  0.15122  0.33483  1.0000
  C   C74       1.0  0.85515  0.17743  0.26448  1.0000
  C   C75       1.0  0.83352  0.19767  0.26602  1.0000
  H   H43       1.0  0.66050  0.14184  0.43837  1.0000
  H   H44       1.0  0.72820  0.16028  0.44342  1.0000
  H   H45       1.0  0.75062  0.23164  0.21286  1.0000
  H   H46       1.0  0.68418  0.21777  0.21392  1.0000
  H   H47       1.0  0.77333  0.25174  0.47755  1.0000
  H   H48       1.0  0.78798  0.31886  0.48232  1.0000
  H   H49       1.0  0.79018  0.16644  0.46745  1.0000
  H   H50       1.0  0.82265  0.12896  0.46072  1.0000
  H   H51       1.0  0.87341  0.18284  0.21032  1.0000
  H   H52       1.0  0.83572  0.21501  0.21201  1.0000
  H   H53       1.0  0.84185  0.27636  0.24109  1.0000
  H   H54       1.0  0.86055  0.34441  0.25160  1.0000
  N   N4        1.0  0.78754  0.57301  0.35625  1.0000
  C   C76       1.0  0.80630  0.54988  0.34066  1.0000
  C   C77       1.0  0.80902  0.61546  0.35458  1.0000
  C   C78       1.0  0.74558  0.55049  0.37179  1.0000
  C   C79       1.0  0.73058  0.52205  0.44208  1.0000
  C   C80       1.0  0.69070  0.49120  0.44193  1.0000
  C   C81       1.0  0.66350  0.48905  0.37528  1.0000
  C   C82       1.0  0.67807  0.51960  0.30938  1.0000
  C   C83       1.0  0.71842  0.54923  0.30662  1.0000
  C   C84       1.0  0.83197  0.54823  0.40571  1.0000
  C   C85       1.0  0.84146  0.51770  0.40401  1.0000
  C   C86       1.0  0.82431  0.48623  0.34007  1.0000
  C   C87       1.0  0.80045  0.48975  0.27195  1.0000
  C   C88       1.0  0.79242  0.52128  0.27082  1.0000
  C   C89       1.0  0.83282  0.63780  0.42810  1.0000
  C   C90       1.0  0.85441  0.67970  0.42560  1.0000
  C   C91       1.0  0.85229  0.70172  0.35111  1.0000
  C   C92       1.0  0.82747  0.67856  0.27855  1.0000
  C   C93       1.0  0.80715  0.63670  0.27929  1.0000
  H   H55       1.0  0.85973  0.51790  0.45387  1.0000
  H   H56       1.0  0.84171  0.56754  0.45886  1.0000
  H   H57       1.0  0.77247  0.52060  0.22475  1.0000
  H   H58       1.0  0.78585  0.46774  0.22542  1.0000
  H   H59       1.0  0.74969  0.52091  0.48789  1.0000
  H   H60       1.0  0.68233  0.46889  0.48829  1.0000
  H   H61       1.0  0.83469  0.62364  0.48445  1.0000
  H   H62       1.0  0.87225  0.69382  0.47970  1.0000
  H   H63       1.0  0.82317  0.69174  0.22342  1.0000
  H   H64       1.0  0.79079  0.62177  0.22394  1.0000
  H   H65       1.0  0.72821  0.56792  0.25240  1.0000
  H   H66       1.0  0.65991  0.51895  0.25853  1.0000
  C   C94       1.0  0.19665  0.07484  0.37884  1.0000
  C   C95       1.0  0.23845  0.09503  0.38047  1.0000
  H   H67       1.0  0.18166  0.04764  0.40955  1.0000
  H   H68       1.0  0.25221  0.08169  0.41173  1.0000
  C   C96       1.0  0.90260  0.09258  0.40820  1.0000
  C   C97       1.0  0.88206  0.11384  0.41093  1.0000
  H   H69       1.0  0.90638  0.08151  0.46785  1.0000
  H   H70       1.0  0.87343  0.11804  0.47315  1.0000
  C   C98       1.0  0.90850  0.81013  0.42666  1.0000
  C   C99       1.0  0.88684  0.76833  0.42891  1.0000
  H   H71       1.0  0.91769  0.82490  0.48699  1.0000
  H   H72       1.0  0.88030  0.75522  0.49114  1.0000
  C   C100      1.0  0.62500  0.17378  0.33480  1.0000
  C   C101      1.0  0.60487  0.16593  0.41898  1.0000
  C   C102      1.0  0.56718  0.16292  0.42956  1.0000
  C   C103      1.0  0.54920  0.17074  0.35419  1.0000
  H   H73       1.0  0.61809  0.16284  0.47570  1.0000
  C   C104      1.0  0.54814  0.15027  0.52015  1.0000
  H   H74       1.0  0.54892  0.12389  0.54263  1.0000
  H   H75       1.0  0.51708  0.14247  0.52029  1.0000
  H   H76       1.0  0.56424  0.17402  0.56910  1.0000
  C   C105      1.0  0.82847  0.45125  0.34747  1.0000
  C   C106      1.0  0.83563  0.43820  0.43142  1.0000
  C   C107      1.0  0.83844  0.40336  0.44095  1.0000
  C   C108      1.0  0.83111  0.37816  0.36464  1.0000
  H   H77       1.0  0.83850  0.45416  0.48864  1.0000
  C   C109      1.0  0.85055  0.39625  0.53147  1.0000
  H   H78       1.0  0.87676  0.42324  0.55532  1.0000
  H   H79       1.0  0.85840  0.37303  0.53092  1.0000
  H   H80       1.0  0.82647  0.38815  0.57977  1.0000
  C   C110      1.0  0.55164  0.37912  0.34496  1.0000
  C   C111      1.0  0.56364  0.39842  0.43010  1.0000
  C   C112      1.0  0.59843  0.43592  0.44237  1.0000
  C   C113      1.0  0.62453  0.45454  0.36777  1.0000
  H   H81       1.0  0.54699  0.38473  0.48611  1.0000
  C   C114      1.0  0.60457  0.45418  0.53379  1.0000
  H   H82       1.0  0.57739  0.45334  0.55636  1.0000
  H   H83       1.0  0.62792  0.48519  0.53529  1.0000
  H   H84       1.0  0.61195  0.43758  0.58191  1.0000
