data_image0
_chemical_formula_structural       NC2NCHC3NHC2HC3N2HC2HC3N2HC2NC2HNCHC2NC2HNCHC2NC2HNCHC2NC2HNCHC2NC2HNCHC2NC2HNCHC24H15C24H15C24H15C24H15C24H15C24H15C3HNCHC2NC2HNCHC2NC2HNCHC2HC3N2HC2HC3N2HC2HC3N2HC2HC3N2HC2HC3N2HC2HC3N2H
_chemical_formula_sum              "N36 C234 H126"
_cell_length_a       76.9817
_cell_length_b       76.9818
_cell_length_c       14.9895
_cell_angle_alpha    90
_cell_angle_beta     90
_cell_angle_gamma    120

_space_group_name_H-M_alt    "P 1"
_space_group_IT_number       1

loop_
  _space_group_symop_operation_xyz
  'x, y, z'

loop_
  _atom_site_type_symbol
  _atom_site_label
  _atom_site_symmetry_multiplicity
  _atom_site_fract_x
  _atom_site_fract_y
  _atom_site_fract_z
  _atom_site_occupancy
  N   N1        1.0  0.01034  0.50529  0.18710  1.0000
  C   C1        1.0  0.01108  0.50566  0.34654  1.0000
  C   C2        1.0  0.02127  0.51077  0.26358  1.0000
  N   N2        1.0  0.02198  0.51113  0.42308  1.0000
  C   C3        1.0  0.04237  0.52133  0.26259  1.0000
  H   H1        1.0  0.04962  0.52522  0.20240  1.0000
  C   C4        1.0  0.94759  0.47381  0.34329  1.0000
  C   C5        1.0  0.95866  0.47938  0.26256  1.0000
  C   C6        1.0  0.97976  0.48994  0.26357  1.0000
  N   N3        1.0  0.99070  0.49543  0.18710  1.0000
  H   H2        1.0  0.95141  0.47551  0.20237  1.0000
  C   C7        1.0  0.49009  0.51068  0.26364  1.0000
  C   C8        1.0  0.47953  0.52122  0.26265  1.0000
  H   H3        1.0  0.47566  0.52459  0.20245  1.0000
  C   C9        1.0  0.52705  0.47396  0.34333  1.0000
  C   C10       1.0  0.52149  0.47947  0.26260  1.0000
  C   C11       1.0  0.51093  0.49000  0.26362  1.0000
  N   N4        1.0  0.50544  0.49545  0.18714  1.0000
  N   N5        1.0  0.49558  0.50523  0.18715  1.0000
  H   H4        1.0  0.52537  0.47610  0.20241  1.0000
  C   C12       1.0  0.49019  0.97958  0.26357  1.0000
  C   C13       1.0  0.47965  0.95848  0.26258  1.0000
  H   H5        1.0  0.47628  0.95123  0.20239  1.0000
  C   C14       1.0  0.52689  0.05326  0.34327  1.0000
  C   C15       1.0  0.52139  0.04219  0.26254  1.0000
  C   C16       1.0  0.51085  0.02109  0.26355  1.0000
  N   N6        1.0  0.50541  0.01015  0.18708  1.0000
  N   N7        1.0  0.49564  0.99051  0.18709  1.0000
  H   H6        1.0  0.52477  0.04943  0.20234  1.0000
  C   C17       1.0  0.31457  0.53712  0.33233  1.0000
  C   C18       1.0  0.30200  0.53113  0.25611  1.0000
  N   N8        1.0  0.28361  0.52945  0.25937  1.0000
  C   C19       1.0  0.27600  0.53287  0.33473  1.0000
  C   C20       1.0  0.25772  0.53293  0.33488  1.0000
  H   H7        1.0  0.30689  0.52885  0.19620  1.0000
  N   N9        1.0  0.24667  0.52958  0.25965  1.0000
  C   C21       1.0  0.23003  0.53139  0.25667  1.0000
  H   H8        1.0  0.22286  0.52919  0.19682  1.0000
  C   C22       1.0  0.46381  0.77766  0.33253  1.0000
  C   C23       1.0  0.46980  0.77109  0.25627  1.0000
  N   N10       1.0  0.47149  0.75438  0.25951  1.0000
  C   C24       1.0  0.46808  0.74335  0.33487  1.0000
  C   C25       1.0  0.46800  0.72501  0.33497  1.0000
  H   H9        1.0  0.47206  0.77824  0.19635  1.0000
  N   N11       1.0  0.47133  0.71729  0.25971  1.0000
  C   C26       1.0  0.46950  0.69884  0.25669  1.0000
  H   H10       1.0  0.47169  0.69387  0.19682  1.0000
  C   C27       1.0  0.22318  0.68633  0.33257  1.0000
  C   C28       1.0  0.22976  0.69888  0.25633  1.0000
  N   N12       1.0  0.24649  0.71726  0.25951  1.0000
  C   C29       1.0  0.25753  0.72487  0.33485  1.0000
  C   C30       1.0  0.27588  0.74314  0.33493  1.0000
  H   H11       1.0  0.22262  0.69398  0.19637  1.0000
  N   N13       1.0  0.28359  0.75418  0.25967  1.0000
  C   C31       1.0  0.30205  0.77081  0.25667  1.0000
  H   H12       1.0  0.30701  0.77799  0.19683  1.0000
  C   C32       1.0  0.68651  0.46365  0.33249  1.0000
  C   C33       1.0  0.69907  0.46964  0.25626  1.0000
  N   N14       1.0  0.71746  0.47131  0.25951  1.0000
  C   C34       1.0  0.72506  0.46788  0.33489  1.0000
  C   C35       1.0  0.74333  0.46780  0.33504  1.0000
  H   H13       1.0  0.69418  0.47190  0.19633  1.0000
  N   N15       1.0  0.75438  0.47113  0.25981  1.0000
  C   C36       1.0  0.77102  0.46932  0.25684  1.0000
  H   H14       1.0  0.77818  0.47150  0.19698  1.0000
  C   C37       1.0  0.53727  0.22305  0.33235  1.0000
  C   C38       1.0  0.53127  0.22962  0.25613  1.0000
  N   N16       1.0  0.52962  0.24635  0.25933  1.0000
  C   C39       1.0  0.53305  0.25739  0.33468  1.0000
  C   C40       1.0  0.53312  0.27573  0.33480  1.0000
  H   H15       1.0  0.52903  0.22247  0.19618  1.0000
  N   N17       1.0  0.52979  0.28344  0.25955  1.0000
  C   C41       1.0  0.53160  0.30189  0.25657  1.0000
  H   H16       1.0  0.52941  0.30686  0.19671  1.0000
  C   C42       1.0  0.77782  0.31436  0.33247  1.0000
  C   C43       1.0  0.77125  0.30180  0.25623  1.0000
  N   N18       1.0  0.75455  0.28341  0.25947  1.0000
  C   C44       1.0  0.74352  0.27579  0.33484  1.0000
  C   C45       1.0  0.72518  0.25752  0.33496  1.0000
  H   H17       1.0  0.77841  0.30670  0.19631  1.0000
  N   N19       1.0  0.71747  0.24647  0.25971  1.0000
  C   C46       1.0  0.69901  0.22984  0.25671  1.0000
  H   H18       1.0  0.69404  0.22268  0.19685  1.0000
  C   C47       1.0  0.17117  0.60179  0.32940  1.0000
  C   C48       1.0  0.15006  0.59092  0.33716  1.0000
  C   C49       1.0  0.13931  0.56966  0.34004  1.0000
  C   C50       1.0  0.15029  0.55940  0.33733  1.0000
  C   C51       1.0  0.17141  0.56985  0.32979  1.0000
  C   C52       1.0  0.18157  0.59101  0.32617  1.0000
  C   C53       1.0  0.11789  0.55884  0.34223  1.0000
  C   C54       1.0  0.10707  0.56439  0.40083  1.0000
  C   C55       1.0  0.08596  0.55384  0.40167  1.0000
  C   C56       1.0  0.07486  0.53748  0.34335  1.0000
  C   C57       1.0  0.08570  0.53197  0.28467  1.0000
  C   C58       1.0  0.10679  0.54241  0.28428  1.0000
  C   C59       1.0  0.18210  0.62311  0.32437  1.0000
  C   C60       1.0  0.18040  0.63505  0.39167  1.0000
  C   C61       1.0  0.19339  0.65599  0.39296  1.0000
  C   C62       1.0  0.20818  0.66566  0.32613  1.0000
  C   C63       1.0  0.20918  0.65371  0.25674  1.0000
  C   C64       1.0  0.19641  0.63282  0.25599  1.0000
  C   C65       1.0  0.18253  0.55965  0.32538  1.0000
  C   C66       1.0  0.19687  0.56431  0.25709  1.0000
  C   C67       1.0  0.20964  0.55618  0.25771  1.0000
  C   C68       1.0  0.20862  0.54319  0.32695  1.0000
  C   C69       1.0  0.19385  0.53807  0.39384  1.0000
  C   C70       1.0  0.18085  0.54600  0.39261  1.0000
  H   H19       1.0  0.19233  0.66407  0.44476  1.0000
  H   H20       1.0  0.17058  0.62848  0.44345  1.0000
  H   H21       1.0  0.22005  0.65993  0.20870  1.0000
  H   H22       1.0  0.19817  0.62465  0.20653  1.0000
  H   H23       1.0  0.19859  0.57421  0.20755  1.0000
  H   H24       1.0  0.22051  0.56084  0.20965  1.0000
  H   H25       1.0  0.17098  0.54268  0.44426  1.0000
  H   H26       1.0  0.19277  0.52888  0.44547  1.0000
  H   H27       1.0  0.11399  0.53809  0.23969  1.0000
  H   H28       1.0  0.07832  0.52009  0.24208  1.0000
  H   H29       1.0  0.07876  0.55853  0.44437  1.0000
  H   H30       1.0  0.11450  0.57609  0.44430  1.0000
  H   H31       1.0  0.14238  0.59860  0.33672  1.0000
  H   H32       1.0  0.19693  0.59877  0.32300  1.0000
  H   H33       1.0  0.14281  0.54405  0.33975  1.0000
  C   C71       1.0  0.39909  0.56959  0.32926  1.0000
  C   C72       1.0  0.40996  0.55934  0.33707  1.0000
  C   C73       1.0  0.43121  0.56984  0.34000  1.0000
  C   C74       1.0  0.44148  0.59109  0.33729  1.0000
  C   C75       1.0  0.43103  0.60176  0.32970  1.0000
  C   C76       1.0  0.40987  0.59076  0.32603  1.0000
  C   C77       1.0  0.44204  0.55924  0.34224  1.0000
  C   C78       1.0  0.43648  0.54287  0.40081  1.0000
  C   C79       1.0  0.44702  0.53231  0.40171  1.0000
  C   C80       1.0  0.46338  0.53756  0.34340  1.0000
  C   C81       1.0  0.46890  0.55391  0.28473  1.0000
  C   C82       1.0  0.45847  0.56458  0.28433  1.0000
  C   C83       1.0  0.37777  0.55919  0.32419  1.0000
  C   C84       1.0  0.36582  0.54558  0.39153  1.0000
  C   C85       1.0  0.34489  0.53764  0.39279  1.0000
  C   C86       1.0  0.33523  0.54276  0.32592  1.0000
  C   C87       1.0  0.34718  0.55567  0.25645  1.0000
  C   C88       1.0  0.36807  0.56379  0.25575  1.0000
  C   C89       1.0  0.44124  0.62309  0.32529  1.0000
  C   C90       1.0  0.43659  0.63277  0.25698  1.0000
  C   C91       1.0  0.44470  0.65367  0.25773  1.0000
  C   C92       1.0  0.45769  0.66563  0.32694  1.0000
  C   C93       1.0  0.46282  0.65597  0.39378  1.0000
  C   C94       1.0  0.45487  0.63504  0.39258  1.0000
  H   H34       1.0  0.33680  0.52853  0.44465  1.0000
  H   H35       1.0  0.37239  0.54233  0.44336  1.0000
  H   H36       1.0  0.34097  0.56034  0.20841  1.0000
  H   H37       1.0  0.37625  0.57370  0.20626  1.0000
  H   H38       1.0  0.42668  0.62460  0.20749  1.0000
  H   H39       1.0  0.44005  0.65988  0.20964  1.0000
  H   H40       1.0  0.45820  0.62849  0.44418  1.0000
  H   H41       1.0  0.47201  0.66407  0.44544  1.0000
  H   H42       1.0  0.46280  0.57609  0.23974  1.0000
  H   H43       1.0  0.48079  0.55842  0.24216  1.0000
  H   H44       1.0  0.44232  0.52040  0.44436  1.0000
  H   H45       1.0  0.42477  0.53860  0.44425  1.0000
  H   H46       1.0  0.40227  0.54397  0.33664  1.0000
  H   H47       1.0  0.40212  0.59836  0.32282  1.0000
  H   H48       1.0  0.45683  0.59896  0.33974  1.0000
  C   C95       1.0  0.43129  0.82967  0.32943  1.0000
  C   C96       1.0  0.44154  0.85079  0.33724  1.0000
  C   C97       1.0  0.43104  0.86154  0.34006  1.0000
  C   C98       1.0  0.40979  0.85056  0.33732  1.0000
  C   C99       1.0  0.39912  0.82944  0.32978  1.0000
  C   C100      1.0  0.41012  0.81928  0.32615  1.0000
  C   C101      1.0  0.44163  0.88296  0.34223  1.0000
  C   C102      1.0  0.45800  0.89377  0.40081  1.0000
  C   C103      1.0  0.46856  0.91489  0.40169  1.0000
  C   C104      1.0  0.46331  0.92599  0.34334  1.0000
  C   C105      1.0  0.44696  0.91515  0.28463  1.0000
  C   C106      1.0  0.43631  0.89405  0.28423  1.0000
  C   C107      1.0  0.44169  0.81874  0.32441  1.0000
  C   C108      1.0  0.45533  0.82044  0.39169  1.0000
  C   C109      1.0  0.46327  0.80745  0.39297  1.0000
  C   C110      1.0  0.45817  0.79268  0.32610  1.0000
  C   C111      1.0  0.44522  0.79168  0.25672  1.0000
  C   C112      1.0  0.43709  0.80444  0.25598  1.0000
  C   C113      1.0  0.37779  0.81832  0.32534  1.0000
  C   C114      1.0  0.36811  0.80398  0.25703  1.0000
  C   C115      1.0  0.34721  0.79121  0.25767  1.0000
  C   C116      1.0  0.33526  0.79223  0.32696  1.0000
  C   C117      1.0  0.34490  0.80701  0.39379  1.0000
  C   C118      1.0  0.36583  0.81999  0.39262  1.0000
  H   H49       1.0  0.47242  0.80852  0.44474  1.0000
  H   H50       1.0  0.45858  0.83027  0.44348  1.0000
  H   H51       1.0  0.44055  0.78079  0.20872  1.0000
  H   H52       1.0  0.42715  0.80267  0.20657  1.0000
  H   H53       1.0  0.37629  0.80224  0.20757  1.0000
  H   H54       1.0  0.34101  0.78032  0.20971  1.0000
  H   H55       1.0  0.37238  0.82990  0.44415  1.0000
  H   H56       1.0  0.33680  0.80811  0.44541  1.0000
  H   H57       1.0  0.42479  0.88686  0.23969  1.0000
  H   H58       1.0  0.44245  0.92253  0.24206  1.0000
  H   H59       1.0  0.48046  0.92209  0.44437  1.0000
  H   H60       1.0  0.46227  0.88635  0.44432  1.0000
  H   H61       1.0  0.45690  0.85846  0.33674  1.0000
  H   H62       1.0  0.40251  0.80392  0.32299  1.0000
  H   H63       1.0  0.40192  0.85804  0.33971  1.0000
  C   C119      1.0  0.82985  0.39889  0.32932  1.0000
  C   C120      1.0  0.85097  0.40977  0.33713  1.0000
  C   C121      1.0  0.86172  0.43102  0.33998  1.0000
  C   C122      1.0  0.85073  0.44129  0.33727  1.0000
  C   C123      1.0  0.82961  0.43083  0.32974  1.0000
  C   C124      1.0  0.81946  0.40967  0.32608  1.0000
  C   C125      1.0  0.88314  0.44185  0.34216  1.0000
  C   C126      1.0  0.89395  0.43629  0.40071  1.0000
  C   C127      1.0  0.91507  0.44684  0.40161  1.0000
  C   C128      1.0  0.92616  0.46321  0.34330  1.0000
  C   C129      1.0  0.91532  0.46872  0.28463  1.0000
  C   C130      1.0  0.89423  0.45828  0.28421  1.0000
  C   C131      1.0  0.81892  0.37757  0.32431  1.0000
  C   C132      1.0  0.82059  0.36563  0.39169  1.0000
  C   C133      1.0  0.80762  0.34470  0.39293  1.0000
  C   C134      1.0  0.79285  0.33503  0.32604  1.0000
  C   C135      1.0  0.79187  0.34697  0.25658  1.0000
  C   C136      1.0  0.80463  0.36787  0.25588  1.0000
  C   C137      1.0  0.81848  0.44103  0.32537  1.0000
  C   C138      1.0  0.80413  0.43637  0.25713  1.0000
  C   C139      1.0  0.79136  0.44449  0.25785  1.0000
  C   C140      1.0  0.79240  0.45749  0.32708  1.0000
  C   C141      1.0  0.80718  0.46262  0.39391  1.0000
  C   C142      1.0  0.82018  0.45467  0.39264  1.0000
  H   H64       1.0  0.80868  0.33661  0.44470  1.0000
  H   H65       1.0  0.83045  0.37220  0.44338  1.0000
  H   H66       1.0  0.78097  0.34077  0.20865  1.0000
  H   H67       1.0  0.80286  0.37604  0.20646  1.0000
  H   H68       1.0  0.80241  0.42648  0.20757  1.0000
  H   H69       1.0  0.78049  0.43984  0.20977  1.0000
  H   H70       1.0  0.83007  0.45802  0.44419  1.0000
  H   H71       1.0  0.80829  0.47182  0.44550  1.0000
  H   H72       1.0  0.88704  0.46261  0.23969  1.0000
  H   H73       1.0  0.92270  0.48061  0.24209  1.0000
  H   H74       1.0  0.92227  0.44215  0.44424  1.0000
  H   H75       1.0  0.88653  0.42459  0.44417  1.0000
  H   H76       1.0  0.85864  0.40208  0.33661  1.0000
  H   H77       1.0  0.80410  0.40191  0.32293  1.0000
  H   H78       1.0  0.85821  0.45664  0.33970  1.0000
  C   C143      1.0  0.60198  0.43115  0.32928  1.0000
  C   C144      1.0  0.59110  0.44138  0.33716  1.0000
  C   C145      1.0  0.56985  0.43088  0.33996  1.0000
  C   C146      1.0  0.55958  0.40963  0.33721  1.0000
  C   C147      1.0  0.57004  0.39896  0.32964  1.0000
  C   C148      1.0  0.59120  0.40997  0.32599  1.0000
  C   C149      1.0  0.55902  0.44147  0.34215  1.0000
  C   C150      1.0  0.56457  0.45783  0.40075  1.0000
  C   C151      1.0  0.55402  0.46840  0.40163  1.0000
  C   C152      1.0  0.53765  0.46313  0.34333  1.0000
  C   C153      1.0  0.53215  0.44679  0.28462  1.0000
  C   C154      1.0  0.54259  0.43613  0.28421  1.0000
  C   C155      1.0  0.62330  0.44155  0.32428  1.0000
  C   C156      1.0  0.63524  0.45515  0.39167  1.0000
  C   C157      1.0  0.65617  0.46311  0.39292  1.0000
  C   C158      1.0  0.66584  0.45800  0.32608  1.0000
  C   C159      1.0  0.65390  0.44507  0.25666  1.0000
  C   C160      1.0  0.63301  0.43695  0.25586  1.0000
  C   C161      1.0  0.55984  0.37764  0.32522  1.0000
  C   C162      1.0  0.56450  0.36796  0.25693  1.0000
  C   C163      1.0  0.55640  0.34707  0.25764  1.0000
  C   C164      1.0  0.54341  0.33510  0.32688  1.0000
  C   C165      1.0  0.53827  0.34475  0.39371  1.0000
  C   C166      1.0  0.54622  0.36568  0.39252  1.0000
  H   H79       1.0  0.66426  0.47227  0.44468  1.0000
  H   H80       1.0  0.62867  0.45844  0.44334  1.0000
  H   H81       1.0  0.66011  0.44040  0.20862  1.0000
  H   H82       1.0  0.62484  0.42702  0.20640  1.0000
  H   H83       1.0  0.57440  0.37614  0.20739  1.0000
  H   H84       1.0  0.56105  0.34086  0.20953  1.0000
  H   H85       1.0  0.54287  0.37223  0.44408  1.0000
  H   H86       1.0  0.52908  0.33665  0.44536  1.0000
  H   H87       1.0  0.53827  0.42462  0.23963  1.0000
  H   H88       1.0  0.52026  0.44228  0.24206  1.0000
  H   H89       1.0  0.55870  0.48028  0.44434  1.0000
  H   H90       1.0  0.57626  0.46210  0.44424  1.0000
  H   H91       1.0  0.59879  0.45675  0.33662  1.0000
  H   H92       1.0  0.59896  0.40237  0.32281  1.0000
  H   H93       1.0  0.54423  0.40176  0.33960  1.0000
  C   C167      1.0  0.56977  0.17101  0.32928  1.0000
  C   C168      1.0  0.55951  0.14990  0.33715  1.0000
  C   C169      1.0  0.57001  0.13914  0.33996  1.0000
  C   C170      1.0  0.59126  0.15011  0.33722  1.0000
  C   C171      1.0  0.60194  0.17123  0.32966  1.0000
  C   C172      1.0  0.59094  0.18139  0.32601  1.0000
  C   C173      1.0  0.55941  0.11771  0.34213  1.0000
  C   C174      1.0  0.54304  0.10691  0.40070  1.0000
  C   C175      1.0  0.53246  0.08579  0.40155  1.0000
  C   C176      1.0  0.53773  0.07469  0.34326  1.0000
  C   C177      1.0  0.55407  0.08552  0.28458  1.0000
  C   C178      1.0  0.56474  0.10662  0.28419  1.0000
  C   C179      1.0  0.55938  0.18195  0.32429  1.0000
  C   C180      1.0  0.54578  0.18029  0.39167  1.0000
  C   C181      1.0  0.53782  0.19327  0.39289  1.0000
  C   C182      1.0  0.54292  0.20803  0.32598  1.0000
  C   C183      1.0  0.55586  0.20902  0.25661  1.0000
  C   C184      1.0  0.56399  0.19626  0.25589  1.0000
  C   C185      1.0  0.62326  0.18234  0.32526  1.0000
  C   C186      1.0  0.63295  0.19669  0.25700  1.0000
  C   C187      1.0  0.65385  0.20946  0.25767  1.0000
  C   C188      1.0  0.66580  0.20844  0.32698  1.0000
  C   C189      1.0  0.65614  0.19366  0.39384  1.0000
  C   C190      1.0  0.63521  0.18067  0.39258  1.0000
  H   H94       1.0  0.52866  0.19220  0.44464  1.0000
  H   H95       1.0  0.54248  0.17043  0.44334  1.0000
  H   H96       1.0  0.56052  0.21989  0.20852  1.0000
  H   H97       1.0  0.57389  0.19799  0.20636  1.0000
  H   H98       1.0  0.62478  0.19842  0.20746  1.0000
  H   H99       1.0  0.66006  0.22034  0.20965  1.0000
  H   H100      1.0  0.62865  0.17077  0.44412  1.0000
  H   H101      1.0  0.66424  0.19256  0.44546  1.0000
  H   H102      1.0  0.57625  0.11380  0.23964  1.0000
  H   H103      1.0  0.55859  0.07814  0.24205  1.0000
  H   H104      1.0  0.52057  0.07859  0.44424  1.0000
  H   H105      1.0  0.53876  0.11433  0.44415  1.0000
  H   H106      1.0  0.54415  0.14222  0.33659  1.0000
  H   H107      1.0  0.59855  0.19676  0.32284  1.0000
  H   H108      1.0  0.59912  0.14262  0.33962  1.0000
  C   C191      1.0  0.05343  0.52689  0.34333  1.0000
  C   C192      1.0  0.04234  0.52139  0.42397  1.0000
  C   C193      1.0  0.98994  0.49503  0.34653  1.0000
  H   H109      1.0  0.04942  0.52466  0.48444  1.0000
  N   N20       1.0  0.97904  0.48956  0.42307  1.0000
  C   C194      1.0  0.95868  0.47929  0.42394  1.0000
  H   H110      1.0  0.95160  0.47601  0.48441  1.0000
  C   C195      1.0  0.47397  0.52672  0.34339  1.0000
  C   C196      1.0  0.47945  0.52111  0.42402  1.0000
  N   N21       1.0  0.48972  0.51101  0.42314  1.0000
  C   C197      1.0  0.49519  0.50559  0.34659  1.0000
  C   C198      1.0  0.50582  0.49508  0.34658  1.0000
  H   H111      1.0  0.47619  0.52492  0.48449  1.0000
  N   N22       1.0  0.51129  0.48965  0.42312  1.0000
  C   C199      1.0  0.52155  0.47955  0.42398  1.0000
  H   H112      1.0  0.52483  0.47575  0.48445  1.0000
  C   C200      1.0  0.47414  0.94742  0.34332  1.0000
  C   C201      1.0  0.47973  0.95851  0.42396  1.0000
  N   N23       1.0  0.48983  0.97887  0.42307  1.0000
  C   C202      1.0  0.49526  0.98976  0.34653  1.0000
  C   C203      1.0  0.50577  0.01091  0.34652  1.0000
  H   H113      1.0  0.47592  0.95143  0.48443  1.0000
  N   N24       1.0  0.51119  0.02181  0.42305  1.0000
  C   C204      1.0  0.52128  0.04217  0.42392  1.0000
  H   H114      1.0  0.52509  0.04925  0.48438  1.0000
  C   C205      1.0  0.28750  0.53813  0.41419  1.0000
  C   C206      1.0  0.30665  0.54002  0.41269  1.0000
  H   H115      1.0  0.31539  0.54515  0.46871  1.0000
  C   C207      1.0  0.22357  0.53745  0.33306  1.0000
  C   C208      1.0  0.23438  0.54022  0.41334  1.0000
  C   C209      1.0  0.25159  0.53824  0.41450  1.0000
  N   N25       1.0  0.26331  0.54268  0.48826  1.0000
  N   N26       1.0  0.28030  0.54263  0.48811  1.0000
  H   H116      1.0  0.23088  0.54545  0.46938  1.0000
  C   C210      1.0  0.46285  0.74960  0.41438  1.0000
  C   C211      1.0  0.46098  0.76688  0.41294  1.0000
  H   H117      1.0  0.45580  0.77045  0.46889  1.0000
  C   C212      1.0  0.46345  0.68632  0.33307  1.0000
  C   C213      1.0  0.46069  0.69436  0.41338  1.0000
  C   C214      1.0  0.46270  0.71356  0.41459  1.0000
  N   N27       1.0  0.45827  0.72085  0.48837  1.0000
  N   N28       1.0  0.45834  0.73790  0.48827  1.0000
  H   H118      1.0  0.45547  0.68563  0.46942  1.0000
  C   C215      1.0  0.25128  0.71340  0.41436  1.0000
  C   C216      1.0  0.23400  0.69426  0.41292  1.0000
  H   H119      1.0  0.23039  0.68551  0.46891  1.0000
  C   C217      1.0  0.31456  0.77730  0.33307  1.0000
  C   C218      1.0  0.30653  0.76647  0.41332  1.0000
  C   C219      1.0  0.28732  0.74928  0.41456  1.0000
  N   N29       1.0  0.28002  0.73757  0.48836  1.0000
  N   N30       1.0  0.26297  0.72060  0.48827  1.0000
  H   H120      1.0  0.31524  0.77001  0.46940  1.0000
  C   C220      1.0  0.71358  0.46265  0.41438  1.0000
  C   C221      1.0  0.69443  0.46078  0.41289  1.0000
  H   H121      1.0  0.68568  0.45564  0.46887  1.0000
  C   C222      1.0  0.77747  0.46326  0.33323  1.0000
  C   C223      1.0  0.76665  0.46047  0.41348  1.0000
  C   C224      1.0  0.74947  0.46251  0.41468  1.0000
  N   N31       1.0  0.73775  0.45809  0.48846  1.0000
  N   N32       1.0  0.72077  0.45815  0.48831  1.0000
  H   H122      1.0  0.77018  0.45529  0.46956  1.0000
  C   C225      1.0  0.53830  0.25114  0.41416  1.0000
  C   C226      1.0  0.54018  0.23388  0.41268  1.0000
  H   H123      1.0  0.54530  0.23026  0.46871  1.0000
  C   C227      1.0  0.53765  0.31440  0.33297  1.0000
  C   C228      1.0  0.54043  0.30637  0.41325  1.0000
  C   C229      1.0  0.53843  0.28718  0.41442  1.0000
  N   N33       1.0  0.54286  0.27988  0.48819  1.0000
  N   N34       1.0  0.54280  0.26284  0.48807  1.0000
  H   H124      1.0  0.54565  0.31510  0.46929  1.0000
  C   C230      1.0  0.74976  0.28728  0.41434  1.0000
  C   C231      1.0  0.76704  0.30642  0.41289  1.0000
  H   H125      1.0  0.77062  0.31518  0.46883  1.0000
  C   C232      1.0  0.68650  0.22336  0.33311  1.0000
  C   C233      1.0  0.69453  0.23418  0.41338  1.0000
  C   C234      1.0  0.71373  0.25138  0.41457  1.0000
  N   N35       1.0  0.72102  0.26311  0.48834  1.0000
  N   N36       1.0  0.73806  0.28009  0.48823  1.0000
  H   H126      1.0  0.68581  0.23068  0.46941  1.0000
