data_image0
_chemical_formula_structural       C16H16C16H16C16H16NC2HN2C2HN2C2HN2C2HN2C2HN2C2HNC3NC3NC5NC5NC36H26C4H4C3NC3NC5NC5NC36H26C4H4C3NC3NC5NC5NC36H26C4H4CNC2O2CH3NCNC2O2CH3NCNC2O2CH3NCNC2O2CH3NCNC2O2CH3NCNC2O2CH3N
_chemical_formula_sum              "C252 H162 N36 O12"
_cell_length_a       67.4557
_cell_length_b       67.4557
_cell_length_c       14.8202
_cell_angle_alpha    89.7164
_cell_angle_beta     90.2836
_cell_angle_gamma    120

_space_group_name_H-M_alt    "P 1"
_space_group_IT_number       1

loop_
  _space_group_symop_operation_xyz
  'x, y, z'

loop_
  _atom_site_type_symbol
  _atom_site_label
  _atom_site_symmetry_multiplicity
  _atom_site_fract_x
  _atom_site_fract_y
  _atom_site_fract_z
  _atom_site_occupancy
  C   C1        1.0  0.13170  0.68392  0.29188  1.0000
  C   C2        1.0  0.11254  0.66166  0.28773  1.0000
  C   C3        1.0  0.16526  0.73482  0.31952  1.0000
  C   C4        1.0  0.18493  0.75671  0.32662  1.0000
  C   C5        1.0  0.13226  0.54444  0.28500  1.0000
  C   C6        1.0  0.11385  0.54873  0.28346  1.0000
  C   C7        1.0  0.19679  0.54396  0.32600  1.0000
  C   C8        1.0  0.17836  0.54824  0.32553  1.0000
  C   C9        1.0  0.96876  0.47524  0.28765  1.0000
  C   C10       1.0  0.94975  0.45290  0.29223  1.0000
  C   C11       1.0  0.89738  0.37974  0.32391  1.0000
  C   C12       1.0  0.91684  0.40176  0.31644  1.0000
  C   C13       1.0  0.96880  0.58825  0.28250  1.0000
  C   C14       1.0  0.95034  0.59245  0.28453  1.0000
  C   C15       1.0  0.90408  0.58826  0.32365  1.0000
  C   C16       1.0  0.88550  0.59230  0.32589  1.0000
  H   H1        1.0  0.87074  0.58116  0.29279  1.0000
  H   H2        1.0  0.90197  0.57407  0.29043  1.0000
  H   H3        1.0  0.94157  0.59073  0.22587  1.0000
  H   H4        1.0  0.97259  0.58313  0.22329  1.0000
  H   H5        1.0  0.97339  0.48339  0.22648  1.0000
  H   H6        1.0  0.94106  0.44558  0.23382  1.0000
  H   H7        1.0  0.11027  0.55444  0.22491  1.0000
  H   H8        1.0  0.14120  0.54672  0.22665  1.0000
  H   H9        1.0  0.18069  0.56294  0.29550  1.0000
  H   H10       1.0  0.21169  0.55545  0.29479  1.0000
  H   H11       1.0  0.10696  0.65401  0.22614  1.0000
  H   H12       1.0  0.13953  0.69170  0.23270  1.0000
  H   H13       1.0  0.18678  0.76936  0.28312  1.0000
  H   H14       1.0  0.15341  0.73234  0.27103  1.0000
  H   H15       1.0  0.92792  0.40480  0.26437  1.0000
  H   H16       1.0  0.89488  0.36759  0.27708  1.0000
  C   C17       1.0  0.42395  0.54030  0.29530  1.0000
  C   C18       1.0  0.44620  0.54338  0.29074  1.0000
  C   C19       1.0  0.37305  0.52319  0.32419  1.0000
  C   C20       1.0  0.35132  0.52131  0.33180  1.0000
  C   C21       1.0  0.56345  0.68037  0.28857  1.0000
  C   C22       1.0  0.55917  0.65768  0.28691  1.0000
  C   C23       1.0  0.56396  0.74530  0.32979  1.0000
  C   C24       1.0  0.55967  0.72258  0.32930  1.0000
  C   C25       1.0  0.63267  0.58606  0.29043  1.0000
  C   C26       1.0  0.65501  0.58937  0.29479  1.0000
  C   C27       1.0  0.72815  0.60996  0.32533  1.0000
  C   C28       1.0  0.70615  0.60749  0.31823  1.0000
  C   C29       1.0  0.51973  0.47311  0.28586  1.0000
  C   C30       1.0  0.51552  0.45045  0.28800  1.0000
  C   C31       1.0  0.51972  0.40831  0.32730  1.0000
  C   C32       1.0  0.51566  0.38568  0.32958  1.0000
  H   H17       1.0  0.52680  0.38213  0.29652  1.0000
  H   H18       1.0  0.53391  0.42046  0.29406  1.0000
  H   H19       1.0  0.51723  0.44351  0.22936  1.0000
  H   H20       1.0  0.52486  0.48214  0.22663  1.0000
  H   H21       1.0  0.62445  0.58258  0.22940  1.0000
  H   H22       1.0  0.66225  0.58804  0.23633  1.0000
  H   H23       1.0  0.55345  0.64852  0.22834  1.0000
  H   H24       1.0  0.56118  0.68718  0.23025  1.0000
  H   H25       1.0  0.54497  0.71029  0.29923  1.0000
  H   H26       1.0  0.55246  0.74878  0.29862  1.0000
  H   H27       1.0  0.45383  0.54569  0.22906  1.0000
  H   H28       1.0  0.41613  0.54055  0.23633  1.0000
  H   H29       1.0  0.33855  0.51073  0.28848  1.0000
  H   H30       1.0  0.37530  0.51380  0.27554  1.0000
  H   H31       1.0  0.70307  0.61558  0.26607  1.0000
  H   H32       1.0  0.74026  0.61965  0.27825  1.0000
  C   C33       1.0  0.56770  0.97620  0.29782  1.0000
  C   C34       1.0  0.56463  0.99538  0.29303  1.0000
  C   C35       1.0  0.58478  0.94235  0.32733  1.0000
  C   C36       1.0  0.58669  0.92250  0.33515  1.0000
  C   C37       1.0  0.42738  0.97637  0.28859  1.0000
  C   C38       1.0  0.45013  0.99467  0.28715  1.0000
  C   C39       1.0  0.36213  0.91193  0.32818  1.0000
  C   C40       1.0  0.38488  0.93030  0.32676  1.0000
  C   C41       1.0  0.52197  0.13930  0.29299  1.0000
  C   C42       1.0  0.51867  0.15832  0.29758  1.0000
  C   C43       1.0  0.49798  0.21070  0.32890  1.0000
  C   C44       1.0  0.50049  0.19122  0.32162  1.0000
  C   C45       1.0  0.63484  0.13906  0.28686  1.0000
  C   C46       1.0  0.65750  0.15753  0.28854  1.0000
  C   C47       1.0  0.69965  0.20384  0.32676  1.0000
  C   C48       1.0  0.72228  0.22242  0.32851  1.0000
  H   H33       1.0  0.72579  0.23714  0.29515  1.0000
  H   H34       1.0  0.68746  0.20591  0.29359  1.0000
  H   H35       1.0  0.66438  0.16623  0.22972  1.0000
  H   H36       1.0  0.62576  0.13521  0.22774  1.0000
  H   H37       1.0  0.52538  0.13469  0.23183  1.0000
  H   H38       1.0  0.51990  0.16700  0.23915  1.0000
  H   H39       1.0  0.45916  0.99852  0.22816  1.0000
  H   H40       1.0  0.42040  0.96776  0.22975  1.0000
  H   H41       1.0  0.39695  0.92804  0.29426  1.0000
  H   H42       1.0  0.35843  0.89717  0.29522  1.0000
  H   H43       1.0  0.56247  0.00089  0.23124  1.0000
  H   H44       1.0  0.56759  0.96832  0.23888  1.0000
  H   H45       1.0  0.59736  0.92045  0.29213  1.0000
  H   H46       1.0  0.59426  0.95414  0.27894  1.0000
  H   H47       1.0  0.49236  0.18015  0.26954  1.0000
  H   H48       1.0  0.48825  0.21320  0.28197  1.0000
  N   N1        1.0  0.26408  0.53660  0.28639  1.0000
  C   C49       1.0  0.28390  0.53613  0.27859  1.0000
  C   C50       1.0  0.29283  0.53071  0.35479  1.0000
  H   H49       1.0  0.29241  0.54040  0.21845  1.0000
  N   N2        1.0  0.31307  0.53170  0.35018  1.0000
  N   N3        1.0  0.57131  0.82000  0.29012  1.0000
  C   C51       1.0  0.57178  0.84031  0.28223  1.0000
  C   C52       1.0  0.57723  0.85453  0.35834  1.0000
  H   H50       1.0  0.56749  0.84466  0.22208  1.0000
  N   N4        1.0  0.57624  0.87379  0.35362  1.0000
  N   N5        1.0  0.29040  0.84164  0.29236  1.0000
  C   C53       1.0  0.27061  0.82134  0.28421  1.0000
  C   C54       1.0  0.25396  0.81451  0.35224  1.0000
  H   H51       1.0  0.26830  0.81106  0.23010  1.0000
  N   N6        1.0  0.23492  0.79412  0.34775  1.0000
  N   N7        1.0  0.81439  0.59239  0.29259  1.0000
  C   C55       1.0  0.79390  0.59153  0.28518  1.0000
  C   C56       1.0  0.78713  0.60133  0.35336  1.0000
  H   H52       1.0  0.78344  0.58331  0.23156  1.0000
  N   N8        1.0  0.76659  0.59966  0.34962  1.0000
  N   N9        1.0  0.51557  0.31459  0.29629  1.0000
  C   C57       1.0  0.51644  0.29498  0.28884  1.0000
  C   C58       1.0  0.50664  0.27826  0.35701  1.0000
  H   H53       1.0  0.52467  0.29288  0.23521  1.0000
  N   N10       1.0  0.50832  0.25940  0.35321  1.0000
  N   N11       1.0  0.79326  0.29355  0.29366  1.0000
  C   C59       1.0  0.81285  0.31404  0.28571  1.0000
  C   C60       1.0  0.82974  0.32083  0.35322  1.0000
  H   H54       1.0  0.81483  0.32448  0.23221  1.0000
  N   N12       1.0  0.84859  0.34137  0.34901  1.0000
  C   C61       1.0  0.03001  0.62509  0.35708  1.0000
  C   C62       1.0  0.05368  0.63674  0.35825  1.0000
  C   C63       1.0  0.06098  0.62068  0.36170  1.0000
  N   N13       1.0  0.04150  0.59997  0.36264  1.0000
  C   C64       1.0  0.02226  0.60163  0.36041  1.0000
  C   C65       1.0  0.99884  0.58401  0.36156  1.0000
  C   C66       1.0  0.99125  0.56018  0.36380  1.0000
  N   N14       1.0  0.00401  0.54984  0.36153  1.0000
  C   C67       1.0  0.99096  0.52676  0.36516  1.0000
  C   C68       1.0  0.96831  0.52200  0.37010  1.0000
  C   C69       1.0  0.96849  0.54254  0.36933  1.0000
  C   C70       1.0  0.99819  0.51025  0.36408  1.0000
  C   C71       1.0  0.02147  0.51563  0.36199  1.0000
  N   N15       1.0  0.04095  0.53634  0.36397  1.0000
  C   C72       1.0  0.06019  0.53468  0.36133  1.0000
  C   C73       1.0  0.05243  0.51123  0.35689  1.0000
  C   C74       1.0  0.02877  0.49959  0.35763  1.0000
  C   C75       1.0  0.08362  0.55228  0.36274  1.0000
  C   C76       1.0  0.09121  0.57611  0.36491  1.0000
  N   N16       1.0  0.07843  0.58645  0.36240  1.0000
  C   C77       1.0  0.09149  0.60953  0.36571  1.0000
  C   C78       1.0  0.11414  0.61429  0.37052  1.0000
  C   C79       1.0  0.11396  0.59376  0.37033  1.0000
  C   C80       1.0  0.08425  0.62604  0.36437  1.0000
  C   C81       1.0  0.10178  0.64958  0.36749  1.0000
  C   C82       1.0  0.11047  0.66040  0.45128  1.0000
  C   C83       1.0  0.12963  0.68261  0.45510  1.0000
  C   C84       1.0  0.14094  0.69477  0.37568  1.0000
  C   C85       1.0  0.16128  0.71691  0.38045  1.0000
  C   C86       1.0  0.20137  0.76145  0.39503  1.0000
  C   C87       1.0  0.19771  0.74364  0.45521  1.0000
  C   C88       1.0  0.17817  0.72178  0.44745  1.0000
  C   C89       1.0  0.10087  0.54584  0.36203  1.0000
  C   C90       1.0  0.10661  0.53825  0.44178  1.0000
  C   C91       1.0  0.12489  0.53375  0.44285  1.0000
  C   C92       1.0  0.13825  0.53697  0.36479  1.0000
  C   C93       1.0  0.15715  0.53285  0.36642  1.0000
  C   C94       1.0  0.15521  0.51303  0.40821  1.0000
  C   C95       1.0  0.17354  0.50861  0.40790  1.0000
  C   C96       1.0  0.19469  0.52398  0.36685  1.0000
  C   C97       1.0  0.98068  0.48670  0.36672  1.0000
  C   C98       1.0  0.94187  0.44130  0.37584  1.0000
  C   C99       1.0  0.95434  0.45284  0.45441  1.0000
  C   C100      1.0  0.97332  0.47517  0.45019  1.0000
  C   C101      1.0  0.92173  0.41901  0.38139  1.0000
  C   C102      1.0  0.90593  0.41334  0.45307  1.0000
  C   C103      1.0  0.88659  0.39135  0.46115  1.0000
  C   C104      1.0  0.88204  0.37418  0.39683  1.0000
  C   C105      1.0  0.98158  0.59045  0.36142  1.0000
  C   C106      1.0  0.97555  0.59716  0.44211  1.0000
  C   C107      1.0  0.95719  0.60152  0.44371  1.0000
  C   C108      1.0  0.94406  0.59908  0.36522  1.0000
  C   C109      1.0  0.92507  0.60308  0.36755  1.0000
  C   C110      1.0  0.88719  0.61148  0.37164  1.0000
  C   C111      1.0  0.90817  0.62630  0.41543  1.0000
  C   C112      1.0  0.92664  0.62213  0.41382  1.0000
  H   H55       1.0  0.91028  0.64046  0.44906  1.0000
  H   H56       1.0  0.94155  0.63358  0.44520  1.0000
  H   H57       1.0  0.95301  0.60577  0.50402  1.0000
  H   H58       1.0  0.98416  0.59840  0.50079  1.0000
  H   H59       1.0  0.02026  0.63279  0.35476  1.0000
  H   H60       1.0  0.06372  0.65417  0.35675  1.0000
  H   H61       1.0  0.04136  0.58569  0.36685  1.0000
  H   H62       1.0  0.04109  0.55059  0.36927  1.0000
  H   H63       1.0  0.95417  0.54403  0.37321  1.0000
  H   H64       1.0  0.95385  0.50630  0.37429  1.0000
  H   H65       1.0  0.98139  0.48316  0.50879  1.0000
  H   H66       1.0  0.94962  0.44514  0.51633  1.0000
  H   H67       1.0  0.01872  0.48218  0.35485  1.0000
  H   H68       1.0  0.06217  0.50354  0.35364  1.0000
  H   H69       1.0  0.12861  0.62999  0.37430  1.0000
  H   H70       1.0  0.12830  0.59227  0.37429  1.0000
  H   H71       1.0  0.09783  0.53644  0.50023  1.0000
  H   H72       1.0  0.12884  0.52882  0.50249  1.0000
  H   H73       1.0  0.17118  0.49388  0.43785  1.0000
  H   H74       1.0  0.14013  0.50120  0.43728  1.0000
  H   H75       1.0  0.17644  0.70937  0.49195  1.0000
  H   H76       1.0  0.20921  0.74645  0.50586  1.0000
  H   H77       1.0  0.13535  0.68977  0.51728  1.0000
  H   H78       1.0  0.10327  0.65192  0.51026  1.0000
  H   H79       1.0  0.90829  0.42526  0.50070  1.0000
  H   H80       1.0  0.87589  0.38797  0.51502  1.0000
  C   C113      1.0  0.21977  0.78325  0.40890  1.0000
  C   C114      1.0  0.21226  0.51877  0.36511  1.0000
  C   C115      1.0  0.86380  0.35222  0.41023  1.0000
  C   C116      1.0  0.86936  0.61634  0.37349  1.0000
  H   H81       1.0  0.22184  0.78993  0.47036  1.0000
  H   H82       1.0  0.87310  0.63230  0.38699  1.0000
  H   H83       1.0  0.86186  0.34535  0.47147  1.0000
  H   H84       1.0  0.20810  0.50237  0.36705  1.0000
  C   C117      1.0  0.48289  0.49729  0.36010  1.0000
  C   C118      1.0  0.47123  0.50929  0.36109  1.0000
  C   C119      1.0  0.48727  0.53265  0.36444  1.0000
  N   N17       1.0  0.50799  0.53391  0.36547  1.0000
  C   C120      1.0  0.50635  0.51302  0.36342  1.0000
  C   C121      1.0  0.52398  0.50723  0.36476  1.0000
  C   C122      1.0  0.54781  0.52347  0.36699  1.0000
  N   N18       1.0  0.55814  0.54659  0.36468  1.0000
  C   C123      1.0  0.58122  0.55662  0.36829  1.0000
  C   C124      1.0  0.58599  0.53873  0.37321  1.0000
  C   C125      1.0  0.56546  0.51837  0.37259  1.0000
  C   C126      1.0  0.59772  0.58037  0.36720  1.0000
  C   C127      1.0  0.59231  0.59825  0.36525  1.0000
  N   N19       1.0  0.57160  0.59701  0.36729  1.0000
  C   C128      1.0  0.57323  0.61790  0.36467  1.0000
  C   C129      1.0  0.59668  0.63361  0.36030  1.0000
  C   C130      1.0  0.60834  0.62161  0.36097  1.0000
  C   C131      1.0  0.55562  0.62370  0.36601  1.0000
  C   C132      1.0  0.53179  0.60745  0.36798  1.0000
  N   N20       1.0  0.52147  0.58433  0.36529  1.0000
  C   C133      1.0  0.49838  0.57428  0.36844  1.0000
  C   C134      1.0  0.49360  0.59216  0.37334  1.0000
  C   C135      1.0  0.51413  0.61252  0.37336  1.0000
  C   C136      1.0  0.48188  0.55054  0.36698  1.0000
  C   C137      1.0  0.45834  0.54449  0.37028  1.0000
  C   C138      1.0  0.44755  0.54204  0.45426  1.0000
  C   C139      1.0  0.42535  0.53900  0.45847  1.0000
  C   C140      1.0  0.41316  0.53843  0.37930  1.0000
  C   C141      1.0  0.39114  0.53686  0.38462  1.0000
  C   C142      1.0  0.34689  0.53311  0.40029  1.0000
  C   C143      1.0  0.36495  0.54705  0.45977  1.0000
  C   C144      1.0  0.38663  0.54900  0.45162  1.0000
  C   C145      1.0  0.56205  0.64740  0.36545  1.0000
  C   C146      1.0  0.56963  0.66053  0.44524  1.0000
  C   C147      1.0  0.57414  0.68331  0.44641  1.0000
  C   C148      1.0  0.57093  0.69364  0.36840  1.0000
  C   C149      1.0  0.57506  0.71667  0.37012  1.0000
  C   C150      1.0  0.59487  0.73444  0.41197  1.0000
  C   C151      1.0  0.59931  0.75719  0.41166  1.0000
  C   C152      1.0  0.58395  0.76308  0.37064  1.0000
  C   C153      1.0  0.62128  0.58641  0.36963  1.0000
  C   C154      1.0  0.66669  0.59298  0.37825  1.0000
  C   C155      1.0  0.65522  0.59381  0.45691  1.0000
  C   C156      1.0  0.63289  0.59050  0.45293  1.0000
  C   C157      1.0  0.68897  0.59510  0.38355  1.0000
  C   C158      1.0  0.69470  0.58487  0.45530  1.0000
  C   C159      1.0  0.71668  0.58747  0.46307  1.0000
  C   C160      1.0  0.73378  0.60011  0.39836  1.0000
  C   C161      1.0  0.51756  0.48355  0.36476  1.0000
  C   C162      1.0  0.51087  0.47066  0.44552  1.0000
  C   C163      1.0  0.50650  0.44793  0.44722  1.0000
  C   C164      1.0  0.50891  0.43739  0.36875  1.0000
  C   C165      1.0  0.50490  0.41440  0.37116  1.0000
  C   C166      1.0  0.49648  0.36811  0.37538  1.0000
  C   C167      1.0  0.48167  0.37417  0.41914  1.0000
  C   C168      1.0  0.48584  0.39683  0.41744  1.0000
  H   H85       1.0  0.46751  0.36206  0.45281  1.0000
  H   H86       1.0  0.47441  0.40024  0.44884  1.0000
  H   H87       1.0  0.50224  0.43938  0.50755  1.0000
  H   H88       1.0  0.50963  0.47791  0.50417  1.0000
  H   H89       1.0  0.47521  0.47985  0.35791  1.0000
  H   H90       1.0  0.45380  0.50189  0.35956  1.0000
  H   H91       1.0  0.52226  0.54804  0.36961  1.0000
  H   H92       1.0  0.55735  0.58288  0.37235  1.0000
  H   H93       1.0  0.56398  0.50255  0.37652  1.0000
  H   H94       1.0  0.60169  0.53996  0.37757  1.0000
  H   H95       1.0  0.62495  0.59049  0.51163  1.0000
  H   H96       1.0  0.66298  0.59672  0.51873  1.0000
  H   H97       1.0  0.62576  0.62900  0.35817  1.0000
  H   H98       1.0  0.60436  0.65105  0.35705  1.0000
  H   H99       1.0  0.47789  0.59090  0.37707  1.0000
  H   H100      1.0  0.51560  0.62832  0.37743  1.0000
  H   H101      1.0  0.57146  0.65342  0.50363  1.0000
  H   H102      1.0  0.57910  0.69207  0.50604  1.0000
  H   H103      1.0  0.61405  0.76951  0.44159  1.0000
  H   H104      1.0  0.60672  0.73112  0.44091  1.0000
  H   H105      1.0  0.39920  0.55956  0.49563  1.0000
  H   H106      1.0  0.36247  0.55591  0.51023  1.0000
  H   H107      1.0  0.41824  0.53741  0.52078  1.0000
  H   H108      1.0  0.45607  0.54318  0.51309  1.0000
  H   H109      1.0  0.68283  0.57529  0.50321  1.0000
  H   H110      1.0  0.72010  0.58008  0.51699  1.0000
  C   C169      1.0  0.32534  0.53042  0.41435  1.0000
  C   C170      1.0  0.58916  0.78586  0.36892  1.0000
  C   C171      1.0  0.75574  0.60373  0.41136  1.0000
  C   C172      1.0  0.49161  0.34541  0.37729  1.0000
  H   H111      1.0  0.31995  0.52889  0.47782  1.0000
  H   H112      1.0  0.47566  0.33316  0.39080  1.0000
  H   H113      1.0  0.76261  0.60836  0.47267  1.0000
  H   H114      1.0  0.60557  0.79810  0.37070  1.0000
  C   C173      1.0  0.61067  0.07796  0.36265  1.0000
  C   C174      1.0  0.59865  0.05429  0.36377  1.0000
  C   C175      1.0  0.57529  0.04700  0.36666  1.0000
  N   N21       1.0  0.57406  0.06648  0.36744  1.0000
  C   C176      1.0  0.59497  0.08572  0.36547  1.0000
  C   C177      1.0  0.60079  0.10914  0.36644  1.0000
  C   C178      1.0  0.58458  0.11676  0.36865  1.0000
  N   N22       1.0  0.56146  0.10401  0.36657  1.0000
  C   C179      1.0  0.55147  0.11709  0.37020  1.0000
  C   C180      1.0  0.56938  0.13973  0.37496  1.0000
  C   C181      1.0  0.58972  0.13952  0.37405  1.0000
  C   C182      1.0  0.52773  0.10987  0.36933  1.0000
  C   C183      1.0  0.50982  0.08660  0.36720  1.0000
  N   N23       1.0  0.51104  0.06711  0.36856  1.0000
  C   C184      1.0  0.49013  0.04788  0.36603  1.0000
  C   C185      1.0  0.47443  0.05566  0.36239  1.0000
  C   C186      1.0  0.48646  0.07932  0.36340  1.0000
  C   C187      1.0  0.48430  0.02446  0.36687  1.0000
  C   C188      1.0  0.50051  0.01683  0.36873  1.0000
  N   N24       1.0  0.52363  0.02959  0.36673  1.0000
  C   C189      1.0  0.53363  0.01651  0.36973  1.0000
  C   C190      1.0  0.51572  0.99385  0.37381  1.0000
  C   C191      1.0  0.49538  0.99405  0.37339  1.0000
  C   C192      1.0  0.55738  0.02373  0.36886  1.0000
  C   C193      1.0  0.56339  0.00620  0.37245  1.0000
  C   C194      1.0  0.56566  0.99762  0.45655  1.0000
  C   C195      1.0  0.56871  0.97845  0.46099  1.0000
  C   C196      1.0  0.56942  0.96705  0.38193  1.0000
  C   C197      1.0  0.57102  0.94660  0.38742  1.0000
  C   C198      1.0  0.57481  0.90610  0.40340  1.0000
  C   C199      1.0  0.56078  0.91004  0.46255  1.0000
  C   C200      1.0  0.55880  0.92977  0.45422  1.0000
  C   C201      1.0  0.46060  0.00723  0.36633  1.0000
  C   C202      1.0  0.44766  0.00116  0.44666  1.0000
  C   C203      1.0  0.42484  0.98297  0.44765  1.0000
  C   C204      1.0  0.41427  0.97006  0.36890  1.0000
  C   C205      1.0  0.39117  0.95127  0.37052  1.0000
  C   C206      1.0  0.37369  0.95307  0.41575  1.0000
  C   C207      1.0  0.35093  0.93481  0.41653  1.0000
  C   C208      1.0  0.34465  0.91384  0.37290  1.0000
  C   C209      1.0  0.52171  0.12740  0.37209  1.0000
  C   C210      1.0  0.51512  0.16620  0.38118  1.0000
  C   C211      1.0  0.51439  0.15374  0.45976  1.0000
  C   C212      1.0  0.51773  0.13477  0.45555  1.0000
  C   C213      1.0  0.51297  0.18633  0.38668  1.0000
  C   C214      1.0  0.52324  0.20214  0.45835  1.0000
  C   C215      1.0  0.52061  0.22149  0.46626  1.0000
  C   C216      1.0  0.50791  0.22606  0.40178  1.0000
  C   C217      1.0  0.62448  0.12639  0.36604  1.0000
  C   C218      1.0  0.63744  0.13252  0.44662  1.0000
  C   C219      1.0  0.66017  0.15088  0.44787  1.0000
  C   C220      1.0  0.67063  0.16392  0.36913  1.0000
  C   C221      1.0  0.69362  0.18291  0.37106  1.0000
  C   C222      1.0  0.73990  0.22078  0.37420  1.0000
  C   C223      1.0  0.73389  0.19987  0.41842  1.0000
  C   C224      1.0  0.71124  0.18140  0.41724  1.0000
  H   H115      1.0  0.74604  0.19781  0.45203  1.0000
  H   H116      1.0  0.70787  0.16653  0.44895  1.0000
  H   H117      1.0  0.66876  0.15515  0.50811  1.0000
  H   H118      1.0  0.63023  0.12400  0.50548  1.0000
  H   H119      1.0  0.62812  0.08770  0.36056  1.0000
  H   H120      1.0  0.60602  0.04425  0.36242  1.0000
  H   H121      1.0  0.55994  0.06664  0.37086  1.0000
  H   H122      1.0  0.52515  0.06696  0.37311  1.0000
  H   H123      1.0  0.60555  0.15383  0.37803  1.0000
  H   H124      1.0  0.56817  0.15420  0.37935  1.0000
  H   H125      1.0  0.51778  0.12670  0.51415  1.0000
  H   H126      1.0  0.51153  0.15846  0.52167  1.0000
  H   H127      1.0  0.47909  0.08937  0.36123  1.0000
  H   H128      1.0  0.45699  0.04593  0.35950  1.0000
  H   H129      1.0  0.51694  0.97936  0.37711  1.0000
  H   H130      1.0  0.47955  0.97973  0.37673  1.0000
  H   H131      1.0  0.45492  0.00964  0.50548  1.0000
  H   H132      1.0  0.41624  0.97876  0.50769  1.0000
  H   H133      1.0  0.33889  0.93707  0.44940  1.0000
  H   H134      1.0  0.37726  0.96799  0.44700  1.0000
  H   H135      1.0  0.54818  0.93166  0.49797  1.0000
  H   H136      1.0  0.55186  0.89857  0.51285  1.0000
  H   H137      1.0  0.57018  0.97276  0.52339  1.0000
  H   H138      1.0  0.56443  0.00484  0.51531  1.0000
  H   H139      1.0  0.53288  0.19978  0.50607  1.0000
  H   H140      1.0  0.52804  0.23220  0.52011  1.0000
  C   C225      1.0  0.57753  0.88722  0.41767  1.0000
  C   C226      1.0  0.32185  0.89622  0.37388  1.0000
  C   C227      1.0  0.50426  0.24434  0.41491  1.0000
  C   C228      1.0  0.76261  0.23861  0.37554  1.0000
  H   H141      1.0  0.57906  0.88326  0.48118  1.0000
  H   H142      1.0  0.77486  0.23487  0.38890  1.0000
  H   H143      1.0  0.49964  0.24643  0.47626  1.0000
  H   H144      1.0  0.30973  0.90015  0.38626  1.0000
  C   C229      1.0  0.25172  0.53146  0.36388  1.0000
  N   N25       1.0  0.28056  0.52591  0.43252  1.0000
  C   C230      1.0  0.26042  0.52589  0.44143  1.0000
  C   C231      1.0  0.24980  0.52129  0.52471  1.0000
  O   O1        1.0  0.26237  0.52652  0.59096  1.0000
  O   O2        1.0  0.23002  0.50148  0.53107  1.0000
  C   C232      1.0  0.21342  0.50223  0.58952  1.0000
  H   H145      1.0  0.19761  0.48579  0.58521  1.0000
  H   H146      1.0  0.20966  0.51561  0.56925  1.0000
  H   H147      1.0  0.21920  0.50490  0.65970  1.0000
  N   N26       1.0  0.23356  0.53428  0.36374  1.0000
  C   C233      1.0  0.57648  0.81266  0.36763  1.0000
  N   N27       1.0  0.58206  0.84692  0.43609  1.0000
  C   C234      1.0  0.58209  0.82679  0.44509  1.0000
  C   C235      1.0  0.58672  0.82062  0.52838  1.0000
  O   O3        1.0  0.58155  0.82787  0.59463  1.0000
  O   O4        1.0  0.60651  0.82060  0.53465  1.0000
  C   C236      1.0  0.60574  0.80312  0.59316  1.0000
  H   H148      1.0  0.62217  0.80373  0.58877  1.0000
  H   H149      1.0  0.59233  0.78603  0.57303  1.0000
  H   H150      1.0  0.60312  0.80612  0.66335  1.0000
  N   N28       1.0  0.57366  0.79167  0.36758  1.0000
  C   C237      1.0  0.29514  0.85639  0.36209  1.0000
  N   N29       1.0  0.25887  0.82918  0.42259  1.0000
  C   C238      1.0  0.27847  0.84984  0.43141  1.0000
  C   C239      1.0  0.28166  0.86273  0.50832  1.0000
  O   O5        1.0  0.26437  0.85915  0.54897  1.0000
  O   O6        1.0  0.29997  0.86724  0.55901  1.0000
  C   C240      1.0  0.30945  0.88806  0.61065  1.0000
  H   H151      1.0  0.32515  0.89069  0.64284  1.0000
  H   H152      1.0  0.29767  0.88684  0.66356  1.0000
  H   H153      1.0  0.31371  0.90292  0.56808  1.0000
  N   N30       1.0  0.31581  0.87507  0.36106  1.0000
  C   C241      1.0  0.82940  0.60277  0.36162  1.0000
  N   N31       1.0  0.80205  0.61146  0.42303  1.0000
  C   C242      1.0  0.82291  0.61291  0.43089  1.0000
  C   C243      1.0  0.83603  0.62286  0.50726  1.0000
  O   O7        1.0  0.83320  0.63740  0.54502  1.0000
  O   O8        1.0  0.83953  0.60882  0.56083  1.0000
  C   C244      1.0  0.86044  0.61964  0.61251  1.0000
  H   H154      1.0  0.86205  0.60632  0.64803  1.0000
  H   H155      1.0  0.86012  0.63128  0.66275  1.0000
  H   H156      1.0  0.87544  0.62901  0.56948  1.0000
  N   N32       1.0  0.84827  0.60111  0.36000  1.0000
  C   C245      1.0  0.50520  0.31905  0.36535  1.0000
  N   N33       1.0  0.49651  0.28288  0.42668  1.0000
  C   C246      1.0  0.49505  0.30227  0.43460  1.0000
  C   C247      1.0  0.48510  0.30525  0.51097  1.0000
  O   O9        1.0  0.47056  0.28780  0.54868  1.0000
  O   O10       1.0  0.49914  0.32267  0.56459  1.0000
  C   C248      1.0  0.48832  0.33265  0.61630  1.0000
  H   H157      1.0  0.50164  0.34749  0.65187  1.0000
  H   H158      1.0  0.47667  0.32057  0.66648  1.0000
  H   H159      1.0  0.47897  0.33839  0.57327  1.0000
  N   N34       1.0  0.50685  0.33958  0.36375  1.0000
  C   C249      1.0  0.78896  0.27856  0.36261  1.0000
  N   N35       1.0  0.82528  0.30593  0.42281  1.0000
  C   C250      1.0  0.80591  0.28507  0.43115  1.0000
  C   C251      1.0  0.80310  0.27199  0.50743  1.0000
  O   O11       1.0  0.82063  0.27456  0.54346  1.0000
  O   O12       1.0  0.78614  0.26900  0.56270  1.0000
  C   C252      1.0  0.77602  0.24813  0.61471  1.0000
  H   H160      1.0  0.76158  0.24699  0.65198  1.0000
  H   H161      1.0  0.78822  0.24814  0.66346  1.0000
  H   H162      1.0  0.76964  0.23305  0.57174  1.0000
  N   N36       1.0  0.76843  0.25968  0.36159  1.0000
