data_image0
_chemical_formula_structural       C15H12C8H3NH2C8H3NH2C2NC2NC5NC3NC17H14C2H2C2H2C2H2C2H2
_chemical_formula_sum              "C68 H44 N6"
_cell_length_a       25.6379
_cell_length_b       25.6379
_cell_length_c       14.8928
_cell_angle_alpha    90
_cell_angle_beta     90
_cell_angle_gamma    90

_space_group_name_H-M_alt    "P 1"
_space_group_IT_number       1

loop_
  _space_group_symop_operation_xyz
  'x, y, z'

loop_
  _atom_site_type_symbol
  _atom_site_label
  _atom_site_symmetry_multiplicity
  _atom_site_fract_x
  _atom_site_fract_y
  _atom_site_fract_z
  _atom_site_occupancy
  C   C1        1.0  0.89214  0.95392  0.34320  1.0000
  C   C2        1.0  0.05290  0.89057  0.34163  1.0000
  C   C3        1.0  0.00180  0.13952  0.34017  1.0000
  C   C4        1.0  0.95245  0.11419  0.34115  1.0000
  C   C5        1.0  0.86585  0.10067  0.34037  1.0000
  C   C6        1.0  0.90383  0.13879  0.34152  1.0000
  C   C7        1.0  0.72745  0.98679  0.26139  1.0000
  C   C8        1.0  0.78234  0.98733  0.26271  1.0000
  C   C9        1.0  0.00220  0.19533  0.33856  1.0000
  C   C10       1.0  0.98783  0.27782  0.25917  1.0000
  C   C11       1.0  0.98793  0.22292  0.26023  1.0000
  C   C12       1.0  0.22279  0.00399  0.25791  1.0000
  C   C13       1.0  0.27770  0.00383  0.25714  1.0000
  C   C14       1.0  0.00444  0.78226  0.25954  1.0000
  C   C15       1.0  0.00403  0.72736  0.25870  1.0000
  H   H1        1.0  0.00590  0.70874  0.19798  1.0000
  H   H2        1.0  0.00588  0.80202  0.19982  1.0000
  H   H3        1.0  0.89884  0.82802  0.35110  1.0000
  H   H4        1.0  0.20303  0.00536  0.19819  1.0000
  H   H5        1.0  0.29634  0.00584  0.19646  1.0000
  H   H6        1.0  0.10680  0.17646  0.32875  1.0000
  H   H7        1.0  0.82666  0.10794  0.33966  1.0000
  H   H8        1.0  0.89641  0.17795  0.34157  1.0000
  H   H9        1.0  0.97692  0.20314  0.20356  1.0000
  H   H10       1.0  0.97592  0.29617  0.20170  1.0000
  H   H11       1.0  0.80229  0.97665  0.20603  1.0000
  H   H12       1.0  0.70928  0.97484  0.20378  1.0000
  C   C16       1.0  0.00329  0.36323  0.33402  1.0000
  C   C17       1.0  0.02062  0.39113  0.25750  1.0000
  C   C18       1.0  0.02193  0.44642  0.25424  1.0000
  C   C19       1.0  0.00493  0.47517  0.33079  1.0000
  C   C20       1.0  0.00391  0.53075  0.33351  1.0000
  C   C21       1.0  0.97098  0.55942  0.27558  1.0000
  C   C22       1.0  0.97050  0.61433  0.27771  1.0000
  C   C23       1.0  0.00242  0.64246  0.33841  1.0000
  H   H13       1.0  0.94714  0.54046  0.23111  1.0000
  H   H14       1.0  0.94585  0.63362  0.23504  1.0000
  H   H15       1.0  0.03417  0.37068  0.20324  1.0000
  N   N1        1.0  0.04077  0.46969  0.17869  1.0000
  H   H16       1.0  0.05281  0.44920  0.12767  1.0000
  H   H17       1.0  0.04509  0.50719  0.17433  1.0000
  C   C24       1.0  0.64182  0.00211  0.33546  1.0000
  C   C25       1.0  0.61425  0.01969  0.25877  1.0000
  C   C26       1.0  0.55898  0.02117  0.25492  1.0000
  C   C27       1.0  0.52991  0.00407  0.33105  1.0000
  C   C28       1.0  0.47431  0.00325  0.33318  1.0000
  C   C29       1.0  0.44571  0.97059  0.27471  1.0000
  C   C30       1.0  0.39080  0.97029  0.27632  1.0000
  C   C31       1.0  0.36258  0.00211  0.33707  1.0000
  H   H18       1.0  0.46473  0.94679  0.23025  1.0000
  H   H19       1.0  0.37156  0.94578  0.23334  1.0000
  H   H20       1.0  0.63492  0.03334  0.20484  1.0000
  N   N2        1.0  0.53604  0.04029  0.17928  1.0000
  H   H21       1.0  0.55675  0.05229  0.12849  1.0000
  H   H22       1.0  0.49856  0.04463  0.17448  1.0000
  C   C32       1.0  0.90609  0.86718  0.34775  1.0000
  C   C33       1.0  0.86793  0.90515  0.34822  1.0000
  N   N3        1.0  0.94404  0.94361  0.34077  1.0000
  C   C34       1.0  0.95465  0.89179  0.34338  1.0000
  C   C35       1.0  0.00353  0.86545  0.34223  1.0000
  N   N4        1.0  0.06286  0.94236  0.34187  1.0000
  C   C36       1.0  0.11461  0.95248  0.34186  1.0000
  C   C37       1.0  0.13947  0.90399  0.34168  1.0000
  C   C38       1.0  0.10146  0.86586  0.34147  1.0000
  C   C39       1.0  0.13956  0.00194  0.34097  1.0000
  C   C40       1.0  0.11306  0.05074  0.33972  1.0000
  N   N5        1.0  0.06120  0.06120  0.34279  1.0000
  C   C41       1.0  0.05069  0.11305  0.33945  1.0000
  C   C42       1.0  0.09937  0.13739  0.33371  1.0000
  C   C43       1.0  0.13747  0.09936  0.33439  1.0000
  N   N6        1.0  0.94240  0.06238  0.34152  1.0000
  C   C44       1.0  0.89062  0.05215  0.34140  1.0000
  C   C45       1.0  0.86549  0.00269  0.34203  1.0000
  C   C46       1.0  0.80968  0.00202  0.34106  1.0000
  C   C47       1.0  0.78067  0.01612  0.41794  1.0000
  C   C48       1.0  0.72575  0.01621  0.41596  1.0000
  C   C49       1.0  0.69784  0.00155  0.33770  1.0000
  C   C50       1.0  0.01684  0.22413  0.41539  1.0000
  C   C51       1.0  0.01742  0.27903  0.41365  1.0000
  C   C52       1.0  0.00277  0.30720  0.33566  1.0000
  C   C53       1.0  0.19522  0.00240  0.33994  1.0000
  C   C54       1.0  0.30674  0.00214  0.33807  1.0000
  C   C55       1.0  0.27862  0.00064  0.41996  1.0000
  C   C56       1.0  0.22371  0.00067  0.42101  1.0000
  C   C57       1.0  0.00316  0.80980  0.34159  1.0000
  C   C58       1.0  0.00155  0.78131  0.42267  1.0000
  C   C59       1.0  0.00129  0.72639  0.42155  1.0000
  C   C60       1.0  0.00246  0.69830  0.33960  1.0000
  H   H23       1.0  0.99933  0.70704  0.48157  1.0000
  H   H24       1.0  0.00041  0.80039  0.48305  1.0000
  H   H25       1.0  0.82885  0.89757  0.35219  1.0000
  H   H26       1.0  0.97040  0.97011  0.33577  1.0000
  H   H27       1.0  0.03483  0.03478  0.34875  1.0000
  H   H28       1.0  0.10868  0.82664  0.34145  1.0000
  H   H29       1.0  0.17870  0.89688  0.34131  1.0000
  H   H30       1.0  0.20464  0.99917  0.48138  1.0000
  H   H31       1.0  0.29795  0.99853  0.47999  1.0000
  H   H32       1.0  0.17660  0.10671  0.33039  1.0000
  H   H33       1.0  0.02765  0.20523  0.47306  1.0000
  H   H34       1.0  0.02954  0.29827  0.47011  1.0000
  H   H35       1.0  0.70633  0.02824  0.47229  1.0000
  H   H36       1.0  0.79939  0.02718  0.47562  1.0000
  C   C61       1.0  0.98777  0.44762  0.40755  1.0000
  C   C62       1.0  0.98687  0.39283  0.40900  1.0000
  H   H37       1.0  0.97482  0.46734  0.46310  1.0000
  H   H38       1.0  0.97292  0.37474  0.46535  1.0000
  C   C63       1.0  0.03461  0.61342  0.39740  1.0000
  C   C64       1.0  0.03532  0.55852  0.39513  1.0000
  H   H39       1.0  0.05895  0.63207  0.44142  1.0000
  H   H40       1.0  0.05975  0.53894  0.43782  1.0000
  C   C65       1.0  0.55714  0.98666  0.40799  1.0000
  C   C66       1.0  0.61192  0.98563  0.41004  1.0000
  H   H41       1.0  0.53718  0.97368  0.46326  1.0000
  H   H42       1.0  0.62978  0.97154  0.46651  1.0000
  C   C67       1.0  0.39155  0.03405  0.39657  1.0000
  C   C68       1.0  0.44646  0.03460  0.39477  1.0000
  H   H43       1.0  0.37285  0.05832  0.44063  1.0000
  H   H44       1.0  0.46599  0.05885  0.43786  1.0000
