data_image0
_chemical_formula_structural       C9H4NHC5H4NHC5H4NHCN2CNC2O3CN2CNC2O3C4HC3H2NO2NHC4HC3H2NO2NHC4HC3H2NO2NH
_chemical_formula_sum              "C48 H27 N15 O12"
_cell_length_a       29.2024
_cell_length_b       29.203
_cell_length_c       15.0685
_cell_angle_alpha    90
_cell_angle_beta     90
_cell_angle_gamma    120

_space_group_name_H-M_alt    "P 1"
_space_group_IT_number       1

loop_
  _space_group_symop_operation_xyz
  'x, y, z'

loop_
  _atom_site_type_symbol
  _atom_site_label
  _atom_site_symmetry_multiplicity
  _atom_site_fract_x
  _atom_site_fract_y
  _atom_site_fract_z
  _atom_site_occupancy
  C   C1        1.0  0.35998  0.64046  0.27177  1.0000
  C   C2        1.0  0.37754  0.77373  0.27980  1.0000
  C   C3        1.0  0.62810  0.34896  0.34202  1.0000
  C   C4        1.0  0.62706  0.22341  0.33912  1.0000
  C   C5        1.0  0.55225  0.44284  0.28424  1.0000
  C   C6        1.0  0.51655  0.46167  0.28135  1.0000
  C   C7        1.0  0.41608  0.46713  0.30199  1.0000
  C   C8        1.0  0.38522  0.49098  0.28699  1.0000
  C   C9        1.0  0.40102  0.54181  0.32102  1.0000
  H   H1        1.0  0.40464  0.43109  0.27384  1.0000
  H   H2        1.0  0.35224  0.47195  0.24797  1.0000
  H   H3        1.0  0.56588  0.43591  0.22611  1.0000
  H   H4        1.0  0.50542  0.46847  0.22055  1.0000
  N   N1        1.0  0.37146  0.56510  0.30286  1.0000
  H   H5        1.0  0.33316  0.54221  0.30492  1.0000
  C   C10       1.0  0.55146  0.10817  0.28396  1.0000
  C   C11       1.0  0.53266  0.05365  0.28122  1.0000
  C   C12       1.0  0.52727  0.94777  0.30215  1.0000
  C   C13       1.0  0.50343  0.89306  0.28722  1.0000
  C   C14       1.0  0.45256  0.85806  0.32117  1.0000
  H   H6        1.0  0.56327  0.97236  0.27386  1.0000
  H   H7        1.0  0.52238  0.87910  0.24803  1.0000
  H   H8        1.0  0.55831  0.12866  0.22577  1.0000
  H   H9        1.0  0.52584  0.03567  0.22048  1.0000
  N   N2        1.0  0.42924  0.80522  0.30298  1.0000
  H   H10       1.0  0.45211  0.78978  0.30499  1.0000
  C   C15       1.0  0.88609  0.44211  0.28399  1.0000
  C   C16       1.0  0.94061  0.47783  0.28122  1.0000
  C   C17       1.0  0.04651  0.57833  0.30210  1.0000
  C   C18       1.0  0.10123  0.60920  0.28717  1.0000
  C   C19       1.0  0.13624  0.59335  0.32113  1.0000
  H   H11       1.0  0.02192  0.58974  0.27384  1.0000
  H   H12       1.0  0.11518  0.64212  0.24801  1.0000
  H   H13       1.0  0.86559  0.42848  0.22581  1.0000
  H   H14       1.0  0.95859  0.48900  0.22047  1.0000
  N   N3        1.0  0.18908  0.62288  0.30297  1.0000
  H   H15       1.0  0.20451  0.66120  0.30501  1.0000
  C   C20       1.0  0.27591  0.63433  0.27182  1.0000
  N   N4        1.0  0.30639  0.61132  0.27251  1.0000
  N   N5        1.0  0.38299  0.69394  0.27251  1.0000
  C   C21       1.0  0.35385  0.71840  0.27180  1.0000
  N   N6        1.0  0.30037  0.68792  0.27254  1.0000
  C   C22       1.0  0.39164  0.61679  0.27972  1.0000
  C   C23       1.0  0.22057  0.60269  0.27978  1.0000
  O   O1        1.0  0.34601  0.79483  0.26624  1.0000
  O   O2        1.0  0.19948  0.55006  0.26618  1.0000
  O   O3        1.0  0.44426  0.64832  0.26601  1.0000
  C   C24       1.0  0.71630  0.36617  0.34188  1.0000
  N   N7        1.0  0.68095  0.38344  0.34152  1.0000
  N   N8        1.0  0.61083  0.29635  0.34149  1.0000
  C   C25       1.0  0.64531  0.27797  0.34185  1.0000
  N   N9        1.0  0.69792  0.31331  0.34134  1.0000
  C   C26       1.0  0.59176  0.36718  0.33949  1.0000
  C   C27       1.0  0.77086  0.40250  0.33919  1.0000
  O   O4        1.0  0.66083  0.20789  0.30856  1.0000
  O   O5        1.0  0.78637  0.45184  0.30889  1.0000
  O   O6        1.0  0.54242  0.33337  0.30916  1.0000
  C   C28       1.0  0.56993  0.43452  0.36640  1.0000
  C   C29       1.0  0.49722  0.47203  0.36047  1.0000
  C   C30       1.0  0.51474  0.46363  0.44375  1.0000
  C   C31       1.0  0.55156  0.44553  0.44557  1.0000
  H   H16       1.0  0.56392  0.43888  0.50528  1.0000
  C   C32       1.0  0.46285  0.49307  0.35323  1.0000
  C   C33       1.0  0.44646  0.56658  0.37562  1.0000
  C   C34       1.0  0.47732  0.54283  0.39076  1.0000
  H   H17       1.0  0.45789  0.60254  0.40387  1.0000
  H   H18       1.0  0.51142  0.56310  0.42680  1.0000
  N   N10       1.0  0.49388  0.47155  0.52344  1.0000
  O   O7        1.0  0.52970  0.50549  0.57219  1.0000
  O   O8        1.0  0.46887  0.42924  0.56655  1.0000
  N   N11       1.0  0.60440  0.41612  0.36898  1.0000
  H   H19       1.0  0.63709  0.43693  0.40226  1.0000
  C   C35       1.0  0.55977  0.13424  0.36604  1.0000
  C   C36       1.0  0.52236  0.02405  0.36043  1.0000
  C   C37       1.0  0.53077  0.05004  0.44363  1.0000
  C   C38       1.0  0.54879  0.10495  0.44530  1.0000
  H   H20       1.0  0.55548  0.12401  0.50495  1.0000
  C   C39       1.0  0.50134  0.96862  0.35333  1.0000
  C   C40       1.0  0.42783  0.87875  0.37581  1.0000
  C   C41       1.0  0.45160  0.93336  0.39093  1.0000
  H   H21       1.0  0.39185  0.85423  0.40405  1.0000
  H   H22       1.0  0.43133  0.94721  0.42694  1.0000
  N   N12       1.0  0.52292  0.02134  0.52340  1.0000
  O   O9        1.0  0.48897  0.02322  0.57213  1.0000
  O   O10       1.0  0.56525  0.03873  0.56648  1.0000
  N   N13       1.0  0.57806  0.18710  0.36843  1.0000
  H   H23       1.0  0.55744  0.19898  0.40224  1.0000
  C   C42       1.0  0.86004  0.42436  0.36609  1.0000
  C   C43       1.0  0.97023  0.49716  0.36041  1.0000
  C   C44       1.0  0.94426  0.47958  0.44363  1.0000
  C   C45       1.0  0.88935  0.44270  0.44533  1.0000
  H   H24       1.0  0.87029  0.43031  0.50499  1.0000
  C   C46       1.0  0.02566  0.53154  0.35329  1.0000
  C   C47       1.0  0.11555  0.54792  0.37574  1.0000
  C   C48       1.0  0.06093  0.51705  0.39082  1.0000
  H   H25       1.0  0.14007  0.53648  0.40402  1.0000
  H   H26       1.0  0.04709  0.48297  0.42692  1.0000
  N   N14       1.0  0.97297  0.50041  0.52338  1.0000
  O   O11       1.0  0.97110  0.46458  0.57211  1.0000
  O   O12       1.0  0.95560  0.52536  0.56649  1.0000
  N   N15       1.0  0.80717  0.38983  0.36852  1.0000
  H   H27       1.0  0.79535  0.35722  0.40199  1.0000
