data_image0
_chemical_formula_structural       C2HC2HCHC4H2C2HC3H3C3OCN2OCHNO2C2HOCNOC2HC2HC2HC2HC2HC2HOC2HC2H2NO2CHC2HC2H2NO2C2HC2H2NO2C2HC2H2NO2C4H2C4H2C4H2C4H2C4H2C2HC8H3NO2C3HOC8H3NO2C8H3NO2C8H3NO2
_chemical_formula_sum              "C108 H54 O24 N12"
_cell_length_a       31.7293
_cell_length_b       31.7293
_cell_length_c       14.7386
_cell_angle_alpha    90
_cell_angle_beta     90
_cell_angle_gamma    120

_space_group_name_H-M_alt    "P 1"
_space_group_IT_number       1

loop_
  _space_group_symop_operation_xyz
  'x, y, z'

loop_
  _atom_site_type_symbol
  _atom_site_label
  _atom_site_symmetry_multiplicity
  _atom_site_fract_x
  _atom_site_fract_y
  _atom_site_fract_z
  _atom_site_occupancy
  C   C1        1.0  0.06892  0.57310  0.34889  1.0000
  C   C2        1.0  0.12048  0.59836  0.34885  1.0000
  H   H1        1.0  0.05278  0.59331  0.33553  1.0000
  C   C3        1.0  0.15186  0.47374  0.30648  1.0000
  C   C4        1.0  0.19193  0.46622  0.29977  1.0000
  H   H2        1.0  0.12988  0.46662  0.25095  1.0000
  C   C5        1.0  0.18917  0.66893  0.27549  1.0000
  H   H3        1.0  0.19099  0.64603  0.22864  1.0000
  C   C6        1.0  0.04000  0.52161  0.36206  1.0000
  C   C7        1.0  0.14402  0.57127  0.36293  1.0000
  C   C8        1.0  0.11797  0.52055  0.37567  1.0000
  C   C9        1.0  0.06652  0.49654  0.37515  1.0000
  H   H4        1.0  0.18138  0.58900  0.36371  1.0000
  H   H5        1.0  0.04872  0.46001  0.38749  1.0000
  C   C10       1.0  0.17967  0.50960  0.45513  1.0000
  C   C11       1.0  0.14576  0.49662  0.38350  1.0000
  H   H6        1.0  0.17741  0.52861  0.50932  1.0000
  C   C12       1.0  0.15042  0.64997  0.33874  1.0000
  C   C13       1.0  0.15014  0.68198  0.40500  1.0000
  C   C14       1.0  0.18869  0.73050  0.41058  1.0000
  H   H7        1.0  0.12404  0.66910  0.45461  1.0000
  H   H8        1.0  0.18865  0.75175  0.46288  1.0000
  H   H9        1.0  0.19689  0.45255  0.24030  1.0000
  C   C15       1.0  0.22875  0.71719  0.28164  1.0000
  C   C16       1.0  0.22778  0.48218  0.36874  1.0000
  C   C17       1.0  0.22070  0.50318  0.44848  1.0000
  O   O1        1.0  0.23961  0.50145  0.59213  1.0000
  C   C18       1.0  0.22911  0.74854  0.35105  1.0000
  N   N1        1.0  0.25682  0.52155  0.51711  1.0000
  N   N2        1.0  0.28942  0.54137  0.22407  1.0000
  O   O2        1.0  0.29123  0.53170  0.14196  1.0000
  C   C19       1.0  0.29206  0.83024  0.29987  1.0000
  H   H10       1.0  0.27342  0.82529  0.24040  1.0000
  N   N3        1.0  0.26970  0.73276  0.22406  1.0000
  O   O3        1.0  0.25821  0.73097  0.14196  1.0000
  O   O4        1.0  0.28995  0.70771  0.23500  1.0000
  C   C20       1.0  0.29164  0.46256  0.41052  1.0000
  C   C21       1.0  0.27362  0.48497  0.35100  1.0000
  H   H11       1.0  0.27039  0.44127  0.46279  1.0000
  O   O5        1.0  0.27575  0.56684  0.52633  1.0000
  C   C22       1.0  0.27216  0.79437  0.36880  1.0000
  N   N4        1.0  0.28251  0.76530  0.51713  1.0000
  O   O6        1.0  0.27963  0.78250  0.59217  1.0000
  C   C23       1.0  0.90615  0.41936  0.34895  1.0000
  C   C24       1.0  0.95770  0.44462  0.34893  1.0000
  H   H12       1.0  0.97384  0.42442  0.33553  1.0000
  C   C25       1.0  0.60281  0.49120  0.34888  1.0000
  C   C26       1.0  0.57756  0.51750  0.34888  1.0000
  H   H13       1.0  0.59775  0.55384  0.33548  1.0000
  C   C27       1.0  0.44906  0.50021  0.34887  1.0000
  C   C28       1.0  0.42380  0.52650  0.34886  1.0000
  H   H14       1.0  0.42887  0.46387  0.33546  1.0000
  C   C29       1.0  0.53092  0.11603  0.34881  1.0000
  C   C30       1.0  0.50465  0.06448  0.34875  1.0000
  H   H15       1.0  0.46829  0.04832  0.33547  1.0000
  C   C31       1.0  0.52196  0.95330  0.34872  1.0000
  C   C32       1.0  0.49569  0.90175  0.34880  1.0000
  H   H16       1.0  0.55831  0.96946  0.33539  1.0000
  C   C33       1.0  0.30498  0.51597  0.28163  1.0000
  C   C34       1.0  0.35324  0.52465  0.27550  1.0000
  H   H17       1.0  0.37615  0.54939  0.22867  1.0000
  O   O7        1.0  0.31448  0.58667  0.23506  1.0000
  C   C35       1.0  0.50625  0.79347  0.28159  1.0000
  C   C36       1.0  0.49759  0.83305  0.27544  1.0000
  H   H18       1.0  0.47286  0.83123  0.22858  1.0000
  C   C37       1.0  0.54843  0.68255  0.30669  1.0000
  C   C38       1.0  0.55597  0.73014  0.29990  1.0000
  H   H19       1.0  0.55558  0.66770  0.25117  1.0000
  H   H20       1.0  0.56968  0.74877  0.24044  1.0000
  N   N5        1.0  0.48087  0.75252  0.22401  1.0000
  O   O8        1.0  0.49058  0.76401  0.14191  1.0000
  O   O9        1.0  0.43557  0.73228  0.23494  1.0000
  C   C39       1.0  0.33965  0.87029  0.30661  1.0000
  H   H21       1.0  0.35449  0.89228  0.25108  1.0000
  C   C40       1.0  0.72163  0.50173  0.28166  1.0000
  C   C41       1.0  0.67338  0.49306  0.27552  1.0000
  H   H22       1.0  0.65046  0.46831  0.22870  1.0000
  C   C42       1.0  0.87476  0.54396  0.30655  1.0000
  C   C43       1.0  0.83469  0.55148  0.29981  1.0000
  H   H23       1.0  0.89673  0.55108  0.25102  1.0000
  H   H24       1.0  0.82972  0.56515  0.24033  1.0000
  N   N6        1.0  0.73720  0.47633  0.22411  1.0000
  O   O10       1.0  0.73539  0.48600  0.14200  1.0000
  O   O11       1.0  0.71215  0.43104  0.23511  1.0000
  C   C44       1.0  0.52035  0.22430  0.28164  1.0000
  C   C45       1.0  0.52902  0.18472  0.27549  1.0000
  H   H25       1.0  0.55374  0.18654  0.22863  1.0000
  C   C46       1.0  0.47816  0.33521  0.30664  1.0000
  C   C47       1.0  0.47062  0.28762  0.29990  1.0000
  H   H26       1.0  0.47102  0.35007  0.25113  1.0000
  H   H27       1.0  0.45692  0.26898  0.24044  1.0000
  N   N7        1.0  0.54573  0.26525  0.22407  1.0000
  O   O12       1.0  0.53603  0.25376  0.14197  1.0000
  O   O13       1.0  0.59103  0.28549  0.23502  1.0000
  C   C48       1.0  0.79788  0.30055  0.28164  1.0000
  C   C49       1.0  0.83747  0.34881  0.27552  1.0000
  H   H28       1.0  0.83566  0.37172  0.22868  1.0000
  C   C50       1.0  0.68697  0.14744  0.30652  1.0000
  C   C51       1.0  0.73456  0.18750  0.29983  1.0000
  H   H29       1.0  0.67213  0.12545  0.25098  1.0000
  H   H30       1.0  0.75322  0.19245  0.24038  1.0000
  N   N8        1.0  0.75694  0.28499  0.22403  1.0000
  O   O14       1.0  0.76845  0.28679  0.14194  1.0000
  O   O15       1.0  0.73670  0.31005  0.23496  1.0000
  C   C52       1.0  0.98662  0.49612  0.36209  1.0000
  C   C53       1.0  0.96010  0.52119  0.37523  1.0000
  C   C54       1.0  0.90865  0.49717  0.37580  1.0000
  C   C55       1.0  0.88260  0.44645  0.36304  1.0000
  H   H31       1.0  0.97790  0.55772  0.38749  1.0000
  H   H32       1.0  0.84524  0.42872  0.36383  1.0000
  C   C56       1.0  0.52606  0.49492  0.36206  1.0000
  C   C57       1.0  0.50099  0.44333  0.37519  1.0000
  C   C58       1.0  0.52502  0.41591  0.37582  1.0000
  C   C59       1.0  0.57574  0.44057  0.36303  1.0000
  H   H33       1.0  0.46447  0.42461  0.38756  1.0000
  H   H34       1.0  0.59346  0.42094  0.36384  1.0000
  C   C60       1.0  0.50055  0.52280  0.36207  1.0000
  C   C61       1.0  0.45087  0.57713  0.36304  1.0000
  C   C62       1.0  0.50159  0.60180  0.37584  1.0000
  C   C63       1.0  0.52562  0.57438  0.37525  1.0000
  H   H35       1.0  0.43315  0.59676  0.36385  1.0000
  H   H36       1.0  0.56215  0.59310  0.38753  1.0000
  C   C64       1.0  0.52724  0.03558  0.36198  1.0000
  C   C65       1.0  0.57884  0.06212  0.37507  1.0000
  C   C66       1.0  0.60624  0.11356  0.37559  1.0000
  C   C67       1.0  0.58156  0.13960  0.36288  1.0000
  H   H37       1.0  0.59756  0.04432  0.38747  1.0000
  H   H38       1.0  0.60118  0.17696  0.36371  1.0000
  C   C68       1.0  0.49937  0.98220  0.36199  1.0000
  C   C69       1.0  0.44505  0.87818  0.36291  1.0000
  C   C70       1.0  0.42037  0.90422  0.37565  1.0000
  C   C71       1.0  0.44778  0.95566  0.37518  1.0000
  H   H39       1.0  0.42543  0.84082  0.36373  1.0000
  H   H40       1.0  0.42906  0.97346  0.38753  1.0000
  C   C72       1.0  0.37219  0.50485  0.33872  1.0000
  C   C73       1.0  0.34016  0.47254  0.40495  1.0000
  H   H41       1.0  0.35304  0.45930  0.45455  1.0000
  C   C74       1.0  0.51737  0.87184  0.33863  1.0000
  C   C75       1.0  0.54963  0.87206  0.40492  1.0000
  C   C76       1.0  0.55960  0.83351  0.41054  1.0000
  C   C77       1.0  0.53723  0.79310  0.35102  1.0000
  C   C78       1.0  0.53999  0.75004  0.36879  1.0000
  C   C79       1.0  0.51895  0.72196  0.44850  1.0000
  C   C80       1.0  0.51252  0.67451  0.45515  1.0000
  C   C81       1.0  0.52551  0.65350  0.38364  1.0000
  H   H42       1.0  0.49348  0.65326  0.50934  1.0000
  H   H43       1.0  0.56284  0.89815  0.45455  1.0000
  H   H44       1.0  0.58086  0.83355  0.46287  1.0000
  N   N9        1.0  0.50054  0.73970  0.51709  1.0000
  O   O16       1.0  0.52060  0.74258  0.59215  1.0000
  O   O17       1.0  0.45525  0.71335  0.52622  1.0000
  C   C82       1.0  0.30025  0.80143  0.44852  1.0000
  C   C83       1.0  0.34770  0.84247  0.45516  1.0000
  C   C84       1.0  0.36867  0.87642  0.38360  1.0000
  H   H45       1.0  0.36897  0.84470  0.50934  1.0000
  O   O18       1.0  0.30886  0.74637  0.52631  1.0000
  C   C85       1.0  0.65442  0.51286  0.33874  1.0000
  C   C86       1.0  0.68645  0.54518  0.40495  1.0000
  C   C87       1.0  0.73497  0.55516  0.41052  1.0000
  C   C88       1.0  0.75299  0.53275  0.35102  1.0000
  C   C89       1.0  0.79883  0.53554  0.36877  1.0000
  C   C90       1.0  0.80592  0.51455  0.44853  1.0000
  C   C91       1.0  0.84695  0.50813  0.45521  1.0000
  C   C92       1.0  0.88086  0.52110  0.38359  1.0000
  H   H46       1.0  0.84920  0.48913  0.50942  1.0000
  H   H47       1.0  0.67358  0.55842  0.45454  1.0000
  H   H48       1.0  0.75623  0.57646  0.46279  1.0000
  N   N10       1.0  0.76979  0.49618  0.51716  1.0000
  O   O19       1.0  0.78700  0.51630  0.59217  1.0000
  O   O20       1.0  0.75086  0.45090  0.52641  1.0000
  C   C93       1.0  0.50923  0.14594  0.33871  1.0000
  C   C94       1.0  0.47695  0.14569  0.40497  1.0000
  C   C95       1.0  0.46697  0.18424  0.41057  1.0000
  C   C96       1.0  0.48936  0.22466  0.35105  1.0000
  C   C97       1.0  0.48659  0.26771  0.36882  1.0000
  C   C98       1.0  0.50764  0.29579  0.44854  1.0000
  C   C99       1.0  0.51408  0.34325  0.45522  1.0000
  C   C100      1.0  0.50108  0.36419  0.38363  1.0000
  H   H49       1.0  0.53312  0.36452  0.50940  1.0000
  H   H50       1.0  0.46374  0.11960  0.45458  1.0000
  H   H51       1.0  0.44570  0.18421  0.46288  1.0000
  N   N11       1.0  0.52604  0.27804  0.51713  1.0000
  O   O21       1.0  0.50596  0.27516  0.59219  1.0000
  O   O22       1.0  0.57132  0.30439  0.52628  1.0000
  C   C101      1.0  0.87620  0.36776  0.33880  1.0000
  C   C102      1.0  0.87646  0.33573  0.40505  1.0000
  C   C103      1.0  0.83791  0.28721  0.41060  1.0000
  C   C104      1.0  0.79750  0.26920  0.35105  1.0000
  C   C105      1.0  0.75444  0.22336  0.36877  1.0000
  C   C106      1.0  0.72633  0.21631  0.44846  1.0000
  C   C107      1.0  0.67888  0.17528  0.45509  1.0000
  C   C108      1.0  0.65796  0.14136  0.38348  1.0000
  H   H52       1.0  0.65759  0.17304  0.50925  1.0000
  H   H53       1.0  0.90255  0.34861  0.45468  1.0000
  H   H54       1.0  0.83793  0.26596  0.46290  1.0000
  N   N12       1.0  0.74406  0.25245  0.51707  1.0000
  O   O23       1.0  0.74693  0.23525  0.59213  1.0000
  O   O24       1.0  0.71771  0.27138  0.52620  1.0000
