data_image0
_chemical_formula_structural       C15H12C2HC6H5CH3CH3C10H4C2NCNC2H3CH3C2NC3HC2NC5HC15H12C2HC6H5CH3CH3C10H4C2NCNC2H3CH3C2NC3HC2NC5HC15H12C2HC6H5CH3CH3C10H4C2NCNC2H3CH3C2NC3HC2NC5HC15H12C2HC6H5CH3CH3C10H4C2NCNC2H3CH3C2NC3HC2NC5H
_chemical_formula_sum              "C212 H144 N16"
_cell_length_a       32.6495
_cell_length_b       32.6498
_cell_length_c       15.0832
_cell_angle_alpha    90
_cell_angle_beta     90
_cell_angle_gamma    89.9481

_space_group_name_H-M_alt    "P 1"
_space_group_IT_number       1

loop_
  _space_group_symop_operation_xyz
  'x, y, z'

loop_
  _atom_site_type_symbol
  _atom_site_label
  _atom_site_symmetry_multiplicity
  _atom_site_fract_x
  _atom_site_fract_y
  _atom_site_fract_z
  _atom_site_occupancy
  C   C1        1.0  0.99708  0.39769  0.29300  1.0000
  C   C2        1.0  0.03428  0.41571  0.26588  1.0000
  C   C3        1.0  0.03411  0.44752  0.20333  1.0000
  C   C4        1.0  0.99710  0.46204  0.16499  1.0000
  C   C5        1.0  0.46003  0.44746  0.20276  1.0000
  C   C6        1.0  0.45984  0.41545  0.26484  1.0000
  C   C7        1.0  0.99713  0.99722  0.09890  1.0000
  C   C8        1.0  0.99695  0.03242  0.16495  1.0000
  C   C9        1.0  0.45981  0.04700  0.20255  1.0000
  C   C10       1.0  0.45949  0.07895  0.26476  1.0000
  C   C11       1.0  0.99665  0.09664  0.29309  1.0000
  C   C12       1.0  0.03397  0.07877  0.26596  1.0000
  C   C13       1.0  0.03391  0.04694  0.20345  1.0000
  C   C14       1.0  0.03240  0.99724  0.03320  1.0000
  C   C15       1.0  0.46215  0.49719  0.03247  1.0000
  H   H1        1.0  0.45843  0.06189  0.01567  1.0000
  H   H2        1.0  0.45853  0.43247  0.01611  1.0000
  H   H3        1.0  0.03636  0.43252  0.01693  1.0000
  H   H4        1.0  0.03626  0.06197  0.01707  1.0000
  H   H5        1.0  0.06161  0.03620  0.18212  1.0000
  H   H6        1.0  0.06133  0.09244  0.28107  1.0000
  H   H7        1.0  0.43207  0.09259  0.27981  1.0000
  H   H8        1.0  0.43222  0.03623  0.18074  1.0000
  H   H9        1.0  0.43240  0.45819  0.18102  1.0000
  H   H10       1.0  0.06177  0.45833  0.18203  1.0000
  H   H11       1.0  0.06168  0.40202  0.28086  1.0000
  H   H12       1.0  0.43243  0.40185  0.27988  1.0000
  C   C16       1.0  0.49720  0.28994  0.22137  1.0000
  C   C17       1.0  0.49717  0.33274  0.22199  1.0000
  H   H13       1.0  0.49724  0.34809  0.16252  1.0000
  C   C18       1.0  0.99709  0.22555  0.30353  1.0000
  C   C19       1.0  0.99681  0.13963  0.30205  1.0000
  C   C20       1.0  0.99695  0.16167  0.22156  1.0000
  C   C21       1.0  0.99710  0.20448  0.22117  1.0000
  C   C22       1.0  0.99721  0.22586  0.14009  1.0000
  C   C23       1.0  0.49728  0.26863  0.14018  1.0000
  H   H14       1.0  0.99722  0.21066  0.08069  1.0000
  H   H15       1.0  0.49733  0.28389  0.08087  1.0000
  H   H16       1.0  0.99693  0.14632  0.16209  1.0000
  H   H17       1.0  0.28411  0.49699  0.33546  1.0000
  H   H18       1.0  0.21016  0.49703  0.33656  1.0000
  C   C24       1.0  0.15325  0.49707  0.07372  1.0000
  H   H19       1.0  0.12026  0.49718  0.08250  1.0000
  H   H20       1.0  0.16541  0.02420  0.10679  1.0000
  H   H21       1.0  0.16530  0.46988  0.10684  1.0000
  C   C25       1.0  0.34516  0.49690  0.06967  1.0000
  H   H22       1.0  0.32007  0.49686  0.11761  1.0000
  H   H23       1.0  0.36353  0.02417  0.08189  1.0000
  H   H24       1.0  0.36366  0.46968  0.08185  1.0000
  C   C26       1.0  0.44761  0.03424  0.66096  1.0000
  C   C27       1.0  0.41517  0.03439  0.59998  1.0000
  C   C28       1.0  0.39702  0.49710  0.57403  1.0000
  C   C29       1.0  0.41537  0.45982  0.59979  1.0000
  C   C30       1.0  0.44767  0.46009  0.66118  1.0000
  C   C31       1.0  0.04730  0.46016  0.66247  1.0000
  C   C32       1.0  0.08042  0.45996  0.60319  1.0000
  C   C33       1.0  0.09883  0.99727  0.57801  1.0000
  C   C34       1.0  0.08035  0.03455  0.60321  1.0000
  C   C35       1.0  0.04728  0.03433  0.66261  1.0000
  H   H25       1.0  0.40135  0.06174  0.58520  1.0000
  H   H26       1.0  0.40152  0.43243  0.58575  1.0000
  H   H27       1.0  0.09443  0.43260  0.58942  1.0000
  H   H28       1.0  0.09438  0.06189  0.58956  1.0000
  C   C36       1.0  0.49700  0.35475  0.30254  1.0000
  C   C37       1.0  0.49701  0.33271  0.38358  1.0000
  N   N1        1.0  0.49705  0.29097  0.38011  1.0000
  C   C38       1.0  0.49713  0.26879  0.30361  1.0000
  N   N2        1.0  0.99700  0.20333  0.38000  1.0000
  C   C39       1.0  0.99689  0.16157  0.38310  1.0000
  C   C40       1.0  0.49697  0.35191  0.47242  1.0000
  H   H29       1.0  0.49691  0.38528  0.46938  1.0000
  H   H30       1.0  0.02415  0.34220  0.50891  1.0000
  H   H31       1.0  0.46980  0.34215  0.50887  1.0000
  C   C41       1.0  0.99683  0.14092  0.47034  1.0000
  H   H32       1.0  0.99689  0.16313  0.52447  1.0000
  H   H33       1.0  0.02400  0.12165  0.47671  1.0000
  H   H34       1.0  0.46955  0.12186  0.47672  1.0000
  C   C42       1.0  0.14163  0.49707  0.56849  1.0000
  C   C43       1.0  0.16641  0.49701  0.64616  1.0000
  N   N3        1.0  0.20726  0.49692  0.63564  1.0000
  C   C44       1.0  0.22646  0.49689  0.55646  1.0000
  C   C45       1.0  0.20380  0.49696  0.47661  1.0000
  C   C46       1.0  0.16059  0.49704  0.48389  1.0000
  H   H35       1.0  0.14295  0.49712  0.42774  1.0000
  C   C47       1.0  0.26921  0.49686  0.55584  1.0000
  C   C48       1.0  0.35411  0.49694  0.56526  1.0000
  N   N4        1.0  0.28888  0.49685  0.63449  1.0000
  C   C49       1.0  0.32981  0.49689  0.64362  1.0000
  C   C50       1.0  0.33463  0.49695  0.48124  1.0000
  C   C51       1.0  0.29136  0.49691  0.47530  1.0000
  C   C52       1.0  0.26900  0.49695  0.39488  1.0000
  C   C53       1.0  0.22565  0.49697  0.39553  1.0000
  H   H36       1.0  0.35191  0.49702  0.42459  1.0000
  C   C54       1.0  0.99708  0.89769  0.29300  1.0000
  C   C55       1.0  0.03428  0.91571  0.26588  1.0000
  C   C56       1.0  0.03411  0.94752  0.20333  1.0000
  C   C57       1.0  0.99710  0.96204  0.16499  1.0000
  C   C58       1.0  0.46003  0.94746  0.20277  1.0000
  C   C59       1.0  0.45984  0.91545  0.26484  1.0000
  C   C60       1.0  0.99713  0.49722  0.09890  1.0000
  C   C61       1.0  0.99695  0.53242  0.16495  1.0000
  C   C62       1.0  0.45981  0.54700  0.20254  1.0000
  C   C63       1.0  0.45949  0.57895  0.26476  1.0000
  C   C64       1.0  0.99665  0.59664  0.29309  1.0000
  C   C65       1.0  0.03397  0.57877  0.26596  1.0000
  C   C66       1.0  0.03391  0.54694  0.20345  1.0000
  C   C67       1.0  0.03240  0.49725  0.03320  1.0000
  C   C68       1.0  0.46215  0.99719  0.03247  1.0000
  H   H37       1.0  0.45844  0.56189  0.01567  1.0000
  H   H38       1.0  0.45852  0.93247  0.01611  1.0000
  H   H39       1.0  0.03635  0.93253  0.01693  1.0000
  H   H40       1.0  0.03627  0.56197  0.01707  1.0000
  H   H41       1.0  0.06161  0.53620  0.18212  1.0000
  H   H42       1.0  0.06133  0.59244  0.28108  1.0000
  H   H43       1.0  0.43207  0.59259  0.27981  1.0000
  H   H44       1.0  0.43222  0.53624  0.18074  1.0000
  H   H45       1.0  0.43240  0.95819  0.18102  1.0000
  H   H46       1.0  0.06177  0.95833  0.18202  1.0000
  H   H47       1.0  0.06168  0.90203  0.28086  1.0000
  H   H48       1.0  0.43243  0.90185  0.27988  1.0000
  C   C69       1.0  0.49720  0.78994  0.22137  1.0000
  C   C70       1.0  0.49717  0.83274  0.22199  1.0000
  H   H49       1.0  0.49724  0.84809  0.16252  1.0000
  C   C71       1.0  0.99709  0.72555  0.30353  1.0000
  C   C72       1.0  0.99681  0.63963  0.30205  1.0000
  C   C73       1.0  0.99695  0.66167  0.22156  1.0000
  C   C74       1.0  0.99710  0.70448  0.22117  1.0000
  C   C75       1.0  0.99721  0.72586  0.14009  1.0000
  C   C76       1.0  0.49728  0.76863  0.14018  1.0000
  H   H50       1.0  0.99722  0.71066  0.08069  1.0000
  H   H51       1.0  0.49733  0.78389  0.08087  1.0000
  H   H52       1.0  0.99693  0.64632  0.16209  1.0000
  H   H53       1.0  0.28410  0.99699  0.33546  1.0000
  H   H54       1.0  0.21016  0.99703  0.33656  1.0000
  C   C77       1.0  0.15325  0.99707  0.07372  1.0000
  H   H55       1.0  0.12026  0.99718  0.08250  1.0000
  H   H56       1.0  0.16541  0.52420  0.10679  1.0000
  H   H57       1.0  0.16529  0.96988  0.10684  1.0000
  C   C78       1.0  0.34515  0.99690  0.06967  1.0000
  H   H58       1.0  0.32006  0.99686  0.11761  1.0000
  H   H59       1.0  0.36353  0.52417  0.08189  1.0000
  H   H60       1.0  0.36366  0.96968  0.08186  1.0000
  C   C79       1.0  0.44761  0.53424  0.66095  1.0000
  C   C80       1.0  0.41517  0.53439  0.59998  1.0000
  C   C81       1.0  0.39702  0.99710  0.57404  1.0000
  C   C82       1.0  0.41537  0.95982  0.59979  1.0000
  C   C83       1.0  0.44766  0.96009  0.66118  1.0000
  C   C84       1.0  0.04730  0.96016  0.66247  1.0000
  C   C85       1.0  0.08041  0.95996  0.60318  1.0000
  C   C86       1.0  0.09883  0.49727  0.57801  1.0000
  C   C87       1.0  0.08036  0.53455  0.60322  1.0000
  C   C88       1.0  0.04729  0.53433  0.66261  1.0000
  H   H61       1.0  0.40135  0.56174  0.58520  1.0000
  H   H62       1.0  0.40152  0.93243  0.58575  1.0000
  H   H63       1.0  0.09443  0.93260  0.58942  1.0000
  H   H64       1.0  0.09438  0.56189  0.58956  1.0000
  C   C89       1.0  0.49700  0.85476  0.30254  1.0000
  C   C90       1.0  0.49701  0.83272  0.38358  1.0000
  N   N5        1.0  0.49705  0.79097  0.38012  1.0000
  C   C91       1.0  0.49713  0.76879  0.30361  1.0000
  N   N6        1.0  0.99700  0.70334  0.38000  1.0000
  C   C92       1.0  0.99689  0.66157  0.38310  1.0000
  C   C93       1.0  0.49697  0.85191  0.47242  1.0000
  H   H65       1.0  0.49691  0.88529  0.46938  1.0000
  H   H66       1.0  0.02415  0.84219  0.50891  1.0000
  H   H67       1.0  0.46980  0.84215  0.50887  1.0000
  C   C94       1.0  0.99683  0.64092  0.47034  1.0000
  H   H68       1.0  0.99689  0.66313  0.52447  1.0000
  H   H69       1.0  0.02400  0.62165  0.47671  1.0000
  H   H70       1.0  0.46955  0.62186  0.47672  1.0000
  C   C95       1.0  0.14163  0.99707  0.56849  1.0000
  C   C96       1.0  0.16641  0.99701  0.64616  1.0000
  N   N7        1.0  0.20726  0.99692  0.63564  1.0000
  C   C97       1.0  0.22645  0.99688  0.55646  1.0000
  C   C98       1.0  0.20380  0.99695  0.47661  1.0000
  C   C99       1.0  0.16058  0.99704  0.48389  1.0000
  H   H71       1.0  0.14295  0.99712  0.42773  1.0000
  C   C100      1.0  0.26921  0.99686  0.55584  1.0000
  C   C101      1.0  0.35410  0.99694  0.56526  1.0000
  N   N8        1.0  0.28888  0.99685  0.63449  1.0000
  C   C102      1.0  0.32981  0.99689  0.64362  1.0000
  C   C103      1.0  0.33463  0.99695  0.48124  1.0000
  C   C104      1.0  0.29136  0.99691  0.47530  1.0000
  C   C105      1.0  0.26900  0.99695  0.39488  1.0000
  C   C106      1.0  0.22564  0.99697  0.39553  1.0000
  H   H72       1.0  0.35191  0.99702  0.42459  1.0000
  C   C107      1.0  0.49708  0.39769  0.29300  1.0000
  C   C108      1.0  0.53429  0.41571  0.26588  1.0000
  C   C109      1.0  0.53412  0.44752  0.20333  1.0000
  C   C110      1.0  0.49711  0.46204  0.16499  1.0000
  C   C111      1.0  0.96003  0.44746  0.20276  1.0000
  C   C112      1.0  0.95984  0.41545  0.26484  1.0000
  C   C113      1.0  0.49713  0.99722  0.09890  1.0000
  C   C114      1.0  0.49695  0.03242  0.16495  1.0000
  C   C115      1.0  0.95981  0.04700  0.20255  1.0000
  C   C116      1.0  0.95949  0.07895  0.26476  1.0000
  C   C117      1.0  0.49665  0.09664  0.29309  1.0000
  C   C118      1.0  0.53397  0.07877  0.26596  1.0000
  C   C119      1.0  0.53391  0.04694  0.20345  1.0000
  C   C120      1.0  0.53240  0.99724  0.03320  1.0000
  C   C121      1.0  0.96215  0.49719  0.03247  1.0000
  H   H73       1.0  0.95843  0.06189  0.01567  1.0000
  H   H74       1.0  0.95853  0.43247  0.01611  1.0000
  H   H75       1.0  0.53636  0.43252  0.01693  1.0000
  H   H76       1.0  0.53626  0.06197  0.01707  1.0000
  H   H77       1.0  0.56161  0.03620  0.18212  1.0000
  H   H78       1.0  0.56133  0.09244  0.28107  1.0000
  H   H79       1.0  0.93207  0.09259  0.27981  1.0000
  H   H80       1.0  0.93222  0.03623  0.18074  1.0000
  H   H81       1.0  0.93240  0.45819  0.18102  1.0000
  H   H82       1.0  0.56177  0.45833  0.18203  1.0000
  H   H83       1.0  0.56168  0.40202  0.28086  1.0000
  H   H84       1.0  0.93243  0.40185  0.27988  1.0000
  C   C122      1.0  0.99721  0.28994  0.22137  1.0000
  C   C123      1.0  0.99717  0.33274  0.22199  1.0000
  H   H85       1.0  0.99724  0.34809  0.16252  1.0000
  C   C124      1.0  0.49709  0.22555  0.30353  1.0000
  C   C125      1.0  0.49681  0.13963  0.30205  1.0000
  C   C126      1.0  0.49695  0.16167  0.22156  1.0000
  C   C127      1.0  0.49710  0.20448  0.22117  1.0000
  C   C128      1.0  0.49722  0.22586  0.14009  1.0000
  C   C129      1.0  0.99728  0.26863  0.14018  1.0000
  H   H86       1.0  0.49722  0.21066  0.08069  1.0000
  H   H87       1.0  0.99733  0.28389  0.08087  1.0000
  H   H88       1.0  0.49693  0.14632  0.16209  1.0000
  H   H89       1.0  0.78411  0.49699  0.33546  1.0000
  H   H90       1.0  0.71016  0.49703  0.33656  1.0000
  C   C130      1.0  0.65325  0.49707  0.07372  1.0000
  H   H91       1.0  0.62026  0.49718  0.08250  1.0000
  H   H92       1.0  0.66541  0.02420  0.10679  1.0000
  H   H93       1.0  0.66530  0.46988  0.10684  1.0000
  C   C131      1.0  0.84516  0.49690  0.06967  1.0000
  H   H94       1.0  0.82007  0.49686  0.11761  1.0000
  H   H95       1.0  0.86353  0.02417  0.08189  1.0000
  H   H96       1.0  0.86366  0.46968  0.08185  1.0000
  C   C132      1.0  0.94761  0.03424  0.66096  1.0000
  C   C133      1.0  0.91517  0.03439  0.59998  1.0000
  C   C134      1.0  0.89702  0.49710  0.57403  1.0000
  C   C135      1.0  0.91537  0.45982  0.59979  1.0000
  C   C136      1.0  0.94767  0.46009  0.66118  1.0000
  C   C137      1.0  0.54730  0.46016  0.66247  1.0000
  C   C138      1.0  0.58042  0.45996  0.60319  1.0000
  C   C139      1.0  0.59883  0.99727  0.57801  1.0000
  C   C140      1.0  0.58035  0.03455  0.60321  1.0000
  C   C141      1.0  0.54729  0.03433  0.66261  1.0000
  H   H97       1.0  0.90135  0.06174  0.58520  1.0000
  H   H98       1.0  0.90153  0.43243  0.58575  1.0000
  H   H99       1.0  0.59443  0.43260  0.58942  1.0000
  H   H100      1.0  0.59437  0.06189  0.58956  1.0000
  C   C142      1.0  0.99700  0.35475  0.30254  1.0000
  C   C143      1.0  0.99701  0.33271  0.38358  1.0000
  N   N9        1.0  0.99705  0.29097  0.38011  1.0000
  C   C144      1.0  0.99713  0.26879  0.30361  1.0000
  N   N10       1.0  0.49700  0.20333  0.38000  1.0000
  C   C145      1.0  0.49689  0.16157  0.38310  1.0000
  C   C146      1.0  0.99697  0.35191  0.47242  1.0000
  H   H101      1.0  0.99691  0.38528  0.46938  1.0000
  H   H102      1.0  0.52416  0.34220  0.50891  1.0000
  H   H103      1.0  0.96980  0.34215  0.50887  1.0000
  C   C147      1.0  0.49683  0.14092  0.47034  1.0000
  H   H104      1.0  0.49690  0.16313  0.52447  1.0000
  H   H105      1.0  0.52400  0.12165  0.47671  1.0000
  H   H106      1.0  0.96955  0.12186  0.47672  1.0000
  C   C148      1.0  0.64163  0.49707  0.56849  1.0000
  C   C149      1.0  0.66641  0.49701  0.64616  1.0000
  N   N11       1.0  0.70726  0.49692  0.63564  1.0000
  C   C150      1.0  0.72646  0.49689  0.55646  1.0000
  C   C151      1.0  0.70380  0.49696  0.47661  1.0000
  C   C152      1.0  0.66059  0.49704  0.48389  1.0000
  H   H107      1.0  0.64295  0.49712  0.42774  1.0000
  C   C153      1.0  0.76921  0.49686  0.55584  1.0000
  C   C154      1.0  0.85411  0.49694  0.56526  1.0000
  N   N12       1.0  0.78888  0.49685  0.63449  1.0000
  C   C155      1.0  0.82981  0.49689  0.64362  1.0000
  C   C156      1.0  0.83463  0.49695  0.48124  1.0000
  C   C157      1.0  0.79136  0.49691  0.47530  1.0000
  C   C158      1.0  0.76900  0.49695  0.39488  1.0000
  C   C159      1.0  0.72564  0.49697  0.39553  1.0000
  H   H108      1.0  0.85191  0.49702  0.42459  1.0000
  C   C160      1.0  0.49708  0.89769  0.29300  1.0000
  C   C161      1.0  0.53429  0.91571  0.26588  1.0000
  C   C162      1.0  0.53411  0.94752  0.20333  1.0000
  C   C163      1.0  0.49710  0.96204  0.16499  1.0000
  C   C164      1.0  0.96003  0.94746  0.20277  1.0000
  C   C165      1.0  0.95984  0.91545  0.26484  1.0000
  C   C166      1.0  0.49713  0.49722  0.09890  1.0000
  C   C167      1.0  0.49695  0.53242  0.16495  1.0000
  C   C168      1.0  0.95981  0.54700  0.20254  1.0000
  C   C169      1.0  0.95949  0.57895  0.26476  1.0000
  C   C170      1.0  0.49665  0.59664  0.29309  1.0000
  C   C171      1.0  0.53397  0.57877  0.26596  1.0000
  C   C172      1.0  0.53391  0.54694  0.20345  1.0000
  C   C173      1.0  0.53240  0.49725  0.03320  1.0000
  C   C174      1.0  0.96215  0.99719  0.03247  1.0000
  H   H109      1.0  0.95844  0.56189  0.01567  1.0000
  H   H110      1.0  0.95852  0.93247  0.01611  1.0000
  H   H111      1.0  0.53635  0.93253  0.01693  1.0000
  H   H112      1.0  0.53627  0.56197  0.01707  1.0000
  H   H113      1.0  0.56161  0.53620  0.18212  1.0000
  H   H114      1.0  0.56134  0.59244  0.28108  1.0000
  H   H115      1.0  0.93207  0.59259  0.27981  1.0000
  H   H116      1.0  0.93222  0.53624  0.18074  1.0000
  H   H117      1.0  0.93240  0.95819  0.18102  1.0000
  H   H118      1.0  0.56177  0.95833  0.18202  1.0000
  H   H119      1.0  0.56168  0.90203  0.28086  1.0000
  H   H120      1.0  0.93243  0.90185  0.27988  1.0000
  C   C175      1.0  0.99720  0.78994  0.22137  1.0000
  C   C176      1.0  0.99717  0.83274  0.22199  1.0000
  H   H121      1.0  0.99724  0.84809  0.16252  1.0000
  C   C177      1.0  0.49709  0.72555  0.30353  1.0000
  C   C178      1.0  0.49681  0.63963  0.30205  1.0000
  C   C179      1.0  0.49695  0.66167  0.22156  1.0000
  C   C180      1.0  0.49710  0.70448  0.22117  1.0000
  C   C181      1.0  0.49722  0.72586  0.14009  1.0000
  C   C182      1.0  0.99728  0.76863  0.14018  1.0000
  H   H122      1.0  0.49722  0.71066  0.08069  1.0000
  H   H123      1.0  0.99733  0.78389  0.08087  1.0000
  H   H124      1.0  0.49693  0.64632  0.16209  1.0000
  H   H125      1.0  0.78411  0.99699  0.33546  1.0000
  H   H126      1.0  0.71016  0.99703  0.33656  1.0000
  C   C183      1.0  0.65325  0.99707  0.07372  1.0000
  H   H127      1.0  0.62026  0.99718  0.08250  1.0000
  H   H128      1.0  0.66541  0.52420  0.10679  1.0000
  H   H129      1.0  0.66529  0.96988  0.10684  1.0000
  C   C184      1.0  0.84516  0.99690  0.06967  1.0000
  H   H130      1.0  0.82006  0.99686  0.11761  1.0000
  H   H131      1.0  0.86354  0.52417  0.08189  1.0000
  H   H132      1.0  0.86366  0.96968  0.08186  1.0000
  C   C185      1.0  0.94761  0.53424  0.66095  1.0000
  C   C186      1.0  0.91517  0.53439  0.59998  1.0000
  C   C187      1.0  0.89702  0.99710  0.57404  1.0000
  C   C188      1.0  0.91537  0.95982  0.59979  1.0000
  C   C189      1.0  0.94766  0.96009  0.66118  1.0000
  C   C190      1.0  0.54730  0.96016  0.66247  1.0000
  C   C191      1.0  0.58041  0.95996  0.60318  1.0000
  C   C192      1.0  0.59883  0.49727  0.57801  1.0000
  C   C193      1.0  0.58035  0.53455  0.60322  1.0000
  C   C194      1.0  0.54729  0.53433  0.66261  1.0000
  H   H133      1.0  0.90135  0.56174  0.58520  1.0000
  H   H134      1.0  0.90152  0.93243  0.58575  1.0000
  H   H135      1.0  0.59443  0.93260  0.58942  1.0000
  H   H136      1.0  0.59438  0.56189  0.58956  1.0000
  C   C195      1.0  0.99700  0.85476  0.30254  1.0000
  C   C196      1.0  0.99701  0.83272  0.38358  1.0000
  N   N13       1.0  0.99705  0.79097  0.38012  1.0000
  C   C197      1.0  0.99713  0.76879  0.30361  1.0000
  N   N14       1.0  0.49700  0.70334  0.38000  1.0000
  C   C198      1.0  0.49689  0.66157  0.38310  1.0000
  C   C199      1.0  0.99697  0.85191  0.47242  1.0000
  H   H137      1.0  0.99691  0.88529  0.46938  1.0000
  H   H138      1.0  0.52416  0.84219  0.50891  1.0000
  H   H139      1.0  0.96980  0.84215  0.50887  1.0000
  C   C200      1.0  0.49683  0.64092  0.47034  1.0000
  H   H140      1.0  0.49690  0.66313  0.52447  1.0000
  H   H141      1.0  0.52400  0.62165  0.47671  1.0000
  H   H142      1.0  0.96955  0.62186  0.47672  1.0000
  C   C201      1.0  0.64163  0.99707  0.56849  1.0000
  C   C202      1.0  0.66641  0.99701  0.64616  1.0000
  N   N15       1.0  0.70726  0.99692  0.63564  1.0000
  C   C203      1.0  0.72646  0.99688  0.55646  1.0000
  C   C204      1.0  0.70380  0.99695  0.47661  1.0000
  C   C205      1.0  0.66058  0.99704  0.48389  1.0000
  H   H143      1.0  0.64295  0.99712  0.42773  1.0000
  C   C206      1.0  0.76921  0.99686  0.55584  1.0000
  C   C207      1.0  0.85411  0.99694  0.56526  1.0000
  N   N16       1.0  0.78888  0.99685  0.63449  1.0000
  C   C208      1.0  0.82981  0.99689  0.64362  1.0000
  C   C209      1.0  0.83462  0.99695  0.48124  1.0000
  C   C210      1.0  0.79136  0.99691  0.47530  1.0000
  C   C211      1.0  0.76900  0.99695  0.39488  1.0000
  C   C212      1.0  0.72564  0.99697  0.39553  1.0000
  H   H144      1.0  0.85191  0.99702  0.42459  1.0000
