data_image0
_chemical_formula_structural       C8H4C8H4C8H4C24H15C24H15C2HC2HC2H4C2HC2HC2H4C2HC2HC2H4
_chemical_formula_sum              "C90 H60"
_cell_length_a       37.3983
_cell_length_b       37.3982
_cell_length_c       14.8842
_cell_angle_alpha    90
_cell_angle_beta     90
_cell_angle_gamma    120

_space_group_name_H-M_alt    "P 1"
_space_group_IT_number       1

loop_
  _space_group_symop_operation_xyz
  'x, y, z'

loop_
  _atom_site_type_symbol
  _atom_site_label
  _atom_site_symmetry_multiplicity
  _atom_site_fract_x
  _atom_site_fract_y
  _atom_site_fract_z
  _atom_site_occupancy
  C   C1        1.0  0.56099  0.44740  0.33660  1.0000
  C   C2        1.0  0.54690  0.45502  0.25462  1.0000
  C   C3        1.0  0.52538  0.47689  0.25203  1.0000
  C   C4        1.0  0.51701  0.49244  0.33130  1.0000
  C   C5        1.0  0.49457  0.51469  0.33118  1.0000
  C   C6        1.0  0.49012  0.53411  0.25360  1.0000
  C   C7        1.0  0.46859  0.55597  0.25612  1.0000
  C   C8        1.0  0.45076  0.56002  0.33652  1.0000
  H   H1        1.0  0.50307  0.53334  0.19379  1.0000
  H   H2        1.0  0.46562  0.56851  0.19747  1.0000
  H   H3        1.0  0.55270  0.44514  0.19513  1.0000
  H   H4        1.0  0.51531  0.48048  0.19079  1.0000
  C   C9        1.0  0.56232  0.11553  0.33662  1.0000
  C   C10       1.0  0.55471  0.09383  0.25462  1.0000
  C   C11       1.0  0.53284  0.05044  0.25204  1.0000
  C   C12       1.0  0.51728  0.02651  0.33129  1.0000
  C   C13       1.0  0.49503  0.98182  0.33118  1.0000
  C   C14       1.0  0.47562  0.95796  0.25359  1.0000
  C   C15       1.0  0.45376  0.91457  0.25612  1.0000
  C   C16       1.0  0.44970  0.89269  0.33651  1.0000
  H   H5        1.0  0.47638  0.97167  0.19379  1.0000
  H   H6        1.0  0.44121  0.89905  0.19746  1.0000
  H   H7        1.0  0.56460  0.10951  0.19515  1.0000
  H   H8        1.0  0.52926  0.03678  0.19079  1.0000
  C   C17       1.0  0.89419  0.44873  0.33659  1.0000
  C   C18       1.0  0.91589  0.46281  0.25460  1.0000
  C   C19       1.0  0.95928  0.48434  0.25202  1.0000
  C   C20       1.0  0.98321  0.49272  0.33128  1.0000
  C   C21       1.0  0.02789  0.51515  0.33117  1.0000
  C   C22       1.0  0.05176  0.51960  0.25358  1.0000
  C   C23       1.0  0.09515  0.54113  0.25611  1.0000
  C   C24       1.0  0.11703  0.55896  0.33651  1.0000
  H   H9        1.0  0.03805  0.50665  0.19378  1.0000
  H   H10       1.0  0.11067  0.54410  0.19746  1.0000
  H   H11       1.0  0.90022  0.45701  0.19512  1.0000
  H   H12       1.0  0.97294  0.49440  0.19077  1.0000
  C   C25       1.0  0.29489  0.64816  0.34261  1.0000
  C   C26       1.0  0.31783  0.62738  0.34265  1.0000
  C   C27       1.0  0.36156  0.64867  0.34261  1.0000
  C   C28       1.0  0.38234  0.69240  0.34264  1.0000
  C   C29       1.0  0.36105  0.71483  0.34260  1.0000
  C   C30       1.0  0.31733  0.69189  0.34264  1.0000
  C   C31       1.0  0.38400  0.62671  0.34176  1.0000
  C   C32       1.0  0.37072  0.59018  0.39260  1.0000
  C   C33       1.0  0.39243  0.56843  0.39084  1.0000
  C   C34       1.0  0.42870  0.58231  0.33871  1.0000
  C   C35       1.0  0.44215  0.61901  0.28841  1.0000
  C   C36       1.0  0.42025  0.64057  0.28959  1.0000
  C   C37       1.0  0.25049  0.62572  0.34176  1.0000
  C   C38       1.0  0.22810  0.58947  0.28959  1.0000
  C   C39       1.0  0.18464  0.56757  0.28840  1.0000
  C   C40       1.0  0.16140  0.58103  0.33871  1.0000
  C   C41       1.0  0.18378  0.61729  0.39083  1.0000
  C   C42       1.0  0.22724  0.63901  0.39259  1.0000
  C   C43       1.0  0.38301  0.75923  0.34174  1.0000
  C   C44       1.0  0.36916  0.78162  0.28956  1.0000
  C   C45       1.0  0.39071  0.82508  0.28839  1.0000
  C   C46       1.0  0.42741  0.84833  0.33870  1.0000
  C   C47       1.0  0.44129  0.82594  0.39082  1.0000
  C   C48       1.0  0.41955  0.78248  0.39256  1.0000
  H   H13       1.0  0.17013  0.54122  0.25067  1.0000
  H   H14       1.0  0.24324  0.57883  0.25028  1.0000
  H   H15       1.0  0.16863  0.62883  0.42733  1.0000
  H   H16       1.0  0.24175  0.66461  0.43261  1.0000
  H   H17       1.0  0.34336  0.76648  0.25028  1.0000
  H   H18       1.0  0.37886  0.83959  0.25067  1.0000
  H   H19       1.0  0.43063  0.76797  0.43261  1.0000
  H   H20       1.0  0.46798  0.84109  0.42732  1.0000
  H   H21       1.0  0.43089  0.66635  0.25028  1.0000
  H   H22       1.0  0.46850  0.63085  0.25067  1.0000
  H   H23       1.0  0.38090  0.54175  0.42735  1.0000
  H   H24       1.0  0.34511  0.57909  0.43263  1.0000
  H   H25       1.0  0.30222  0.59580  0.34243  1.0000
  H   H26       1.0  0.30136  0.70750  0.34242  1.0000
  H   H27       1.0  0.41392  0.70837  0.34242  1.0000
  C   C49       1.0  0.71672  0.35961  0.34327  1.0000
  C   C50       1.0  0.69383  0.38044  0.34330  1.0000
  C   C51       1.0  0.65011  0.35905  0.34326  1.0000
  C   C52       1.0  0.62928  0.31534  0.34330  1.0000
  C   C53       1.0  0.65067  0.29300  0.34328  1.0000
  C   C54       1.0  0.69438  0.31589  0.34332  1.0000
  C   C55       1.0  0.62769  0.38094  0.34225  1.0000
  C   C56       1.0  0.64000  0.41649  0.39596  1.0000
  C   C57       1.0  0.61815  0.43811  0.39438  1.0000
  C   C58       1.0  0.58304  0.42519  0.33889  1.0000
  C   C59       1.0  0.57066  0.38959  0.28536  1.0000
  C   C60       1.0  0.59248  0.36796  0.28701  1.0000
  C   C61       1.0  0.76103  0.38203  0.34225  1.0000
  C   C62       1.0  0.78326  0.41723  0.28699  1.0000
  C   C63       1.0  0.82670  0.43904  0.28532  1.0000
  C   C64       1.0  0.84992  0.42668  0.33888  1.0000
  C   C65       1.0  0.82774  0.39157  0.39438  1.0000
  C   C66       1.0  0.78427  0.36973  0.39598  1.0000
  C   C67       1.0  0.62878  0.24869  0.34227  1.0000
  C   C68       1.0  0.64177  0.22646  0.28707  1.0000
  C   C69       1.0  0.62014  0.18301  0.28542  1.0000
  C   C70       1.0  0.58453  0.15979  0.33891  1.0000
  C   C71       1.0  0.57160  0.18198  0.39437  1.0000
  C   C72       1.0  0.59321  0.22545  0.39594  1.0000
  H   H28       1.0  0.84127  0.46455  0.24500  1.0000
  H   H29       1.0  0.76796  0.42702  0.24577  1.0000
  H   H30       1.0  0.84306  0.38103  0.43339  1.0000
  H   H31       1.0  0.76972  0.34485  0.43802  1.0000
  H   H32       1.0  0.66686  0.24175  0.24588  1.0000
  H   H33       1.0  0.63109  0.16845  0.24511  1.0000
  H   H34       1.0  0.58287  0.24000  0.43793  1.0000
  H   H35       1.0  0.54570  0.16666  0.43330  1.0000
  H   H36       1.0  0.58269  0.34288  0.24580  1.0000
  H   H37       1.0  0.54516  0.37865  0.24504  1.0000
  H   H38       1.0  0.62871  0.46399  0.43335  1.0000
  H   H39       1.0  0.66488  0.42683  0.43797  1.0000
  H   H40       1.0  0.70942  0.41203  0.34301  1.0000
  H   H41       1.0  0.71038  0.30030  0.34305  1.0000
  H   H42       1.0  0.59769  0.29934  0.34301  1.0000
  C   C73       1.0  0.53027  0.48402  0.41442  1.0000
  C   C74       1.0  0.55224  0.46231  0.41614  1.0000
  H   H43       1.0  0.56137  0.45666  0.47679  1.0000
  C   C75       1.0  0.45570  0.54126  0.41455  1.0000
  C   C76       1.0  0.47734  0.51922  0.41285  1.0000
  H   H44       1.0  0.44388  0.54416  0.47436  1.0000
  C   C77       1.0  0.48074  0.49916  0.49629  1.0000
  C   C78       1.0  0.52228  0.49953  0.49988  1.0000
  H   H45       1.0  0.45528  0.46723  0.49722  1.0000
  H   H46       1.0  0.47821  0.51454  0.55647  1.0000
  H   H47       1.0  0.52155  0.48090  0.55726  1.0000
  H   H48       1.0  0.54744  0.53112  0.51069  1.0000
  C   C79       1.0  0.52569  0.04819  0.41442  1.0000
  C   C80       1.0  0.54741  0.09188  0.41614  1.0000
  H   H49       1.0  0.55305  0.10665  0.47680  1.0000
  C   C81       1.0  0.46846  0.91638  0.41454  1.0000
  C   C82       1.0  0.49050  0.96007  0.41285  1.0000
  H   H50       1.0  0.46556  0.90167  0.47435  1.0000
  C   C83       1.0  0.51056  0.98352  0.49628  1.0000
  C   C84       1.0  0.51018  0.02469  0.49987  1.0000
  H   H51       1.0  0.54249  0.99000  0.49722  1.0000
  H   H52       1.0  0.49518  0.96561  0.55646  1.0000
  H   H53       1.0  0.52880  0.04259  0.55726  1.0000
  H   H54       1.0  0.47858  0.01825  0.51067  1.0000
  C   C85       1.0  0.96153  0.47946  0.41440  1.0000
  C   C86       1.0  0.91784  0.45748  0.41612  1.0000
  H   H55       1.0  0.90307  0.44836  0.47679  1.0000
  C   C87       1.0  0.09334  0.55403  0.41453  1.0000
  C   C88       1.0  0.04965  0.53238  0.41284  1.0000
  H   H56       1.0  0.10805  0.56585  0.47434  1.0000
  C   C89       1.0  0.02620  0.52899  0.49627  1.0000
  C   C90       1.0  0.98502  0.48745  0.49986  1.0000
  H   H57       1.0  0.01972  0.55445  0.49720  1.0000
  H   H58       1.0  0.04410  0.53152  0.55645  1.0000
  H   H59       1.0  0.96713  0.48818  0.55725  1.0000
  H   H60       1.0  0.99147  0.46230  0.51068  1.0000
