data_image0
_chemical_formula_structural       C2H3NC3H3NC3H3NC3H3NC3H3NC3H3NC4H3NC3H3NC3H3NC3H3NC3H3NC3H3NC3H3NC3H3NC3H3NC3H3NC3H3NC3H3NC6H3C6H3C6H3C6H3C6H3C6H3C6H3C6H3C6H3C6H3C6H3C6H3C3H3NC3H3NC3H3NC3H3NC3H3NC3H3NC2H3NC3H3NC3H3NC3H3NC3H3NC3H3NC3H3NC3H3NC3H3NC3H3NC3H3NC3H3NC
_chemical_formula_sum              "C180 H144 N36"
_cell_length_a       37.2645
_cell_length_b       37.2645
_cell_length_c       14.8069
_cell_angle_alpha    90
_cell_angle_beta     90
_cell_angle_gamma    120

_space_group_name_H-M_alt    "P 1"
_space_group_IT_number       1

loop_
  _space_group_symop_operation_xyz
  'x, y, z'

loop_
  _atom_site_type_symbol
  _atom_site_label
  _atom_site_symmetry_multiplicity
  _atom_site_fract_x
  _atom_site_fract_y
  _atom_site_fract_z
  _atom_site_occupancy
  C   C1        1.0  0.18597  0.43317  0.18379  1.0000
  C   C2        1.0  0.19730  0.41670  0.26289  1.0000
  H   H1        1.0  0.18952  0.41912  0.12225  1.0000
  H   H2        1.0  0.20525  0.46665  0.17698  1.0000
  H   H3        1.0  0.15368  0.42540  0.18970  1.0000
  N   N1        1.0  0.17815  0.37459  0.27019  1.0000
  C   C3        1.0  0.22770  0.44100  0.32844  1.0000
  C   C4        1.0  0.57411  0.74679  0.18476  1.0000
  C   C5        1.0  0.59063  0.77480  0.26350  1.0000
  H   H4        1.0  0.58810  0.76423  0.12300  1.0000
  H   H5        1.0  0.54062  0.73255  0.17804  1.0000
  H   H6        1.0  0.58190  0.72230  0.19103  1.0000
  N   N2        1.0  0.63275  0.79781  0.27064  1.0000
  C   C6        1.0  0.56636  0.78105  0.32884  1.0000
  C   C7        1.0  0.26059  0.82202  0.18399  1.0000
  C   C8        1.0  0.23267  0.81050  0.26291  1.0000
  H   H7        1.0  0.24306  0.81852  0.12235  1.0000
  H   H8        1.0  0.27487  0.80281  0.17713  1.0000
  H   H9        1.0  0.28505  0.85432  0.19019  1.0000
  N   N3        1.0  0.20963  0.82957  0.27027  1.0000
  C   C9        1.0  0.22648  0.77995  0.32813  1.0000
  C   C10       1.0  0.82790  0.56813  0.18385  1.0000
  C   C11       1.0  0.81649  0.58457  0.26289  1.0000
  H   H10       1.0  0.82433  0.58215  0.12227  1.0000
  H   H11       1.0  0.80867  0.53465  0.17706  1.0000
  H   H12       1.0  0.86020  0.57596  0.18983  1.0000
  N   N4        1.0  0.83558  0.62668  0.27017  1.0000
  C   C12       1.0  0.78605  0.56024  0.32832  1.0000
  C   C13       1.0  0.43954  0.25431  0.18439  1.0000
  C   C14       1.0  0.42302  0.22638  0.26328  1.0000
  H   H13       1.0  0.42552  0.23679  0.12272  1.0000
  H   H14       1.0  0.47302  0.26852  0.17764  1.0000
  H   H15       1.0  0.43176  0.27881  0.19049  1.0000
  N   N5        1.0  0.38090  0.20340  0.27047  1.0000
  C   C15       1.0  0.44729  0.22022  0.32878  1.0000
  C   C16       1.0  0.75303  0.17946  0.18428  1.0000
  C   C17       1.0  0.78102  0.19096  0.26309  1.0000
  H   H16       1.0  0.77049  0.18289  0.12258  1.0000
  H   H17       1.0  0.73881  0.19872  0.17748  1.0000
  H   H18       1.0  0.72853  0.14718  0.19059  1.0000
  N   N6        1.0  0.80400  0.17183  0.27035  1.0000
  C   C18       1.0  0.78726  0.22152  0.32835  1.0000
  C   C19       1.0  0.22722  0.17565  0.32016  1.0000
  C   C20       1.0  0.20364  0.17658  0.24582  1.0000
  C   C21       1.0  0.20134  0.15662  0.15805  1.0000
  H   H19       1.0  0.23249  0.16841  0.13090  1.0000
  H   H20       1.0  0.18334  0.16299  0.10902  1.0000
  H   H21       1.0  0.18662  0.12315  0.16647  1.0000
  N   N7        1.0  0.18364  0.19864  0.25470  1.0000
  C   C22       1.0  0.83182  0.04597  0.32021  1.0000
  C   C23       1.0  0.83066  0.02148  0.24565  1.0000
  C   C24       1.0  0.85045  0.03917  0.15776  1.0000
  H   H22       1.0  0.83861  0.05854  0.13093  1.0000
  H   H23       1.0  0.84399  0.01482  0.10860  1.0000
  H   H24       1.0  0.88394  0.05793  0.16589  1.0000
  N   N8        1.0  0.80861  0.97942  0.25447  1.0000
  C   C25       1.0  0.96143  0.78039  0.32010  1.0000
  C   C26       1.0  0.98600  0.80451  0.24636  1.0000
  C   C27       1.0  0.96843  0.80747  0.15900  1.0000
  H   H25       1.0  0.94900  0.77653  0.13092  1.0000
  H   H26       1.0  0.99285  0.82574  0.11026  1.0000
  H   H27       1.0  0.94978  0.82225  0.16830  1.0000
  N   N9        1.0  0.02804  0.82441  0.25530  1.0000
  C   C28       1.0  0.78642  0.82564  0.32025  1.0000
  C   C29       1.0  0.80969  0.82441  0.24560  1.0000
  C   C30       1.0  0.81167  0.84410  0.15764  1.0000
  H   H28       1.0  0.78043  0.83222  0.13096  1.0000
  H   H29       1.0  0.82952  0.83760  0.10843  1.0000
  H   H30       1.0  0.82641  0.87760  0.16561  1.0000
  N   N10       1.0  0.82968  0.80235  0.25440  1.0000
  C   C31       1.0  0.18175  0.95532  0.32024  1.0000
  C   C32       1.0  0.18260  0.97983  0.24599  1.0000
  C   C33       1.0  0.16251  0.96217  0.15833  1.0000
  H   H31       1.0  0.17421  0.94277  0.13100  1.0000
  H   H32       1.0  0.16884  0.98655  0.10932  1.0000
  H   H33       1.0  0.12904  0.94347  0.16696  1.0000
  N   N11       1.0  0.20472  0.02189  0.25482  1.0000
  C   C34       1.0  0.05216  0.22090  0.32015  1.0000
  C   C35       1.0  0.02763  0.19709  0.24606  1.0000
  C   C36       1.0  0.04526  0.19450  0.15849  1.0000
  H   H34       1.0  0.06467  0.22555  0.13092  1.0000
  H   H35       1.0  0.02088  0.17638  0.10957  1.0000
  H   H36       1.0  0.06396  0.17974  0.16733  1.0000
  N   N12       1.0  0.98558  0.17715  0.25493  1.0000
  C   C37       1.0  0.22945  0.57444  0.37906  1.0000
  C   C38       1.0  0.21463  0.58814  0.30584  1.0000
  C   C39       1.0  0.20539  0.56852  0.21559  1.0000
  H   H37       1.0  0.23260  0.56844  0.18853  1.0000
  H   H38       1.0  0.19643  0.58510  0.16816  1.0000
  H   H39       1.0  0.17985  0.53669  0.22063  1.0000
  N   N13       1.0  0.21684  0.62580  0.31422  1.0000
  C   C40       1.0  0.43295  0.64938  0.38112  1.0000
  C   C41       1.0  0.41984  0.62079  0.30806  1.0000
  C   C42       1.0  0.43971  0.63114  0.21807  1.0000
  H   H40       1.0  0.43973  0.65833  0.19056  1.0000
  H   H41       1.0  0.42336  0.60553  0.17067  1.0000
  H   H42       1.0  0.47157  0.63758  0.22368  1.0000
  N   N14       1.0  0.38218  0.58527  0.31588  1.0000
  C   C43       1.0  0.35827  0.77862  0.37978  1.0000
  C   C44       1.0  0.38691  0.79332  0.30683  1.0000
  C   C45       1.0  0.37672  0.80252  0.21636  1.0000
  H   H43       1.0  0.34948  0.77531  0.18917  1.0000
  H   H44       1.0  0.40236  0.81145  0.16923  1.0000
  H   H45       1.0  0.37043  0.82807  0.22108  1.0000
  N   N15       1.0  0.42228  0.79101  0.31582  1.0000
  C   C46       1.0  0.78442  0.42689  0.37975  1.0000
  C   C47       1.0  0.79930  0.41321  0.30661  1.0000
  C   C48       1.0  0.80853  0.43276  0.21630  1.0000
  H   H46       1.0  0.78131  0.43277  0.18913  1.0000
  H   H47       1.0  0.81755  0.41618  0.16898  1.0000
  H   H48       1.0  0.83403  0.46462  0.22125  1.0000
  N   N16       1.0  0.79716  0.37558  0.31514  1.0000
  C   C49       1.0  0.58075  0.35184  0.38045  1.0000
  C   C50       1.0  0.59394  0.38044  0.30744  1.0000
  C   C51       1.0  0.57396  0.37015  0.21756  1.0000
  H   H49       1.0  0.57382  0.34293  0.18994  1.0000
  H   H50       1.0  0.59033  0.39576  0.17018  1.0000
  H   H51       1.0  0.54214  0.36381  0.22337  1.0000
  N   N17       1.0  0.63159  0.41594  0.31545  1.0000
  C   C52       1.0  0.65561  0.22319  0.38067  1.0000
  C   C53       1.0  0.62698  0.20799  0.30773  1.0000
  C   C54       1.0  0.63723  0.19875  0.21735  1.0000
  H   H52       1.0  0.66437  0.22601  0.19000  1.0000
  H   H53       1.0  0.61155  0.18960  0.17020  1.0000
  H   H54       1.0  0.64371  0.17333  0.22228  1.0000
  N   N18       1.0  0.59150  0.21015  0.31631  1.0000
  C   C55       1.0  0.09640  0.24282  0.32202  1.0000
  C   C56       1.0  0.11856  0.22108  0.32213  1.0000
  C   C57       1.0  0.16232  0.24215  0.32794  1.0000
  C   C58       1.0  0.18394  0.28599  0.33155  1.0000
  C   C59       1.0  0.16298  0.30894  0.33269  1.0000
  C   C60       1.0  0.11908  0.28666  0.32778  1.0000
  H   H55       1.0  0.21565  0.30144  0.33161  1.0000
  H   H56       1.0  0.10331  0.30263  0.32852  1.0000
  H   H57       1.0  0.10253  0.18934  0.32057  1.0000
  C   C61       1.0  0.76453  0.84797  0.32213  1.0000
  C   C62       1.0  0.78630  0.89187  0.32209  1.0000
  C   C63       1.0  0.76524  0.91457  0.32786  1.0000
  C   C64       1.0  0.72141  0.89237  0.33157  1.0000
  C   C65       1.0  0.69843  0.84845  0.33276  1.0000
  C   C66       1.0  0.72070  0.82682  0.32791  1.0000
  H   H58       1.0  0.70598  0.90865  0.33155  1.0000
  H   H59       1.0  0.70472  0.79508  0.32871  1.0000
  H   H60       1.0  0.81804  0.90756  0.32040  1.0000
  C   C67       1.0  0.15943  0.91109  0.32215  1.0000
  C   C68       1.0  0.11554  0.88892  0.32220  1.0000
  C   C69       1.0  0.09286  0.84516  0.32813  1.0000
  C   C70       1.0  0.11510  0.82356  0.33164  1.0000
  C   C71       1.0  0.15901  0.84453  0.33271  1.0000
  C   C72       1.0  0.18061  0.88843  0.32786  1.0000
  H   H61       1.0  0.09885  0.79185  0.33157  1.0000
  H   H62       1.0  0.21236  0.90421  0.32857  1.0000
  H   H63       1.0  0.09982  0.90495  0.32072  1.0000
  C   C73       1.0  0.91719  0.75846  0.32192  1.0000
  C   C74       1.0  0.89501  0.78016  0.32199  1.0000
  C   C75       1.0  0.85125  0.75907  0.32782  1.0000
  C   C76       1.0  0.82965  0.71524  0.33147  1.0000
  C   C77       1.0  0.85063  0.69231  0.33259  1.0000
  C   C78       1.0  0.89453  0.71462  0.32769  1.0000
  H   H64       1.0  0.79793  0.69978  0.33153  1.0000
  H   H65       1.0  0.91031  0.69865  0.32843  1.0000
  H   H66       1.0  0.91102  0.81191  0.32059  1.0000
  C   C79       1.0  0.24912  0.15332  0.32204  1.0000
  C   C80       1.0  0.22736  0.10943  0.32202  1.0000
  C   C81       1.0  0.24841  0.08673  0.32791  1.0000
  C   C82       1.0  0.29225  0.10893  0.33155  1.0000
  C   C83       1.0  0.31522  0.15284  0.33269  1.0000
  C   C84       1.0  0.29296  0.17447  0.32782  1.0000
  H   H67       1.0  0.30768  0.09265  0.33157  1.0000
  H   H68       1.0  0.30894  0.20622  0.32862  1.0000
  H   H69       1.0  0.19562  0.09373  0.32050  1.0000
  C   C85       1.0  0.85414  0.09020  0.32209  1.0000
  C   C86       1.0  0.89804  0.11234  0.32211  1.0000
  C   C87       1.0  0.92074  0.15610  0.32795  1.0000
  C   C88       1.0  0.89853  0.17773  0.33148  1.0000
  C   C89       1.0  0.85461  0.15679  0.33262  1.0000
  C   C90       1.0  0.83299  0.11289  0.32780  1.0000
  H   H70       1.0  0.91480  0.20944  0.33147  1.0000
  H   H71       1.0  0.80124  0.09712  0.32856  1.0000
  H   H72       1.0  0.91373  0.09629  0.32053  1.0000
  C   C91       1.0  0.31466  0.54899  0.37715  1.0000
  C   C92       1.0  0.29132  0.56915  0.38721  1.0000
  C   C93       1.0  0.24838  0.54976  0.36918  1.0000
  C   C94       1.0  0.22798  0.50763  0.34255  1.0000
  C   C95       1.0  0.24962  0.48527  0.33603  1.0000
  C   C96       1.0  0.29329  0.50704  0.34954  1.0000
  H   H73       1.0  0.19644  0.49229  0.33547  1.0000
  H   H74       1.0  0.30942  0.49150  0.34501  1.0000
  H   H75       1.0  0.30692  0.60025  0.40173  1.0000
  C   C97       1.0  0.45848  0.76006  0.37847  1.0000
  C   C98       1.0  0.43842  0.71662  0.38957  1.0000
  C   C99       1.0  0.45773  0.69301  0.37130  1.0000
  C   C100      1.0  0.49976  0.71468  0.34392  1.0000
  C   C101      1.0  0.52211  0.75867  0.33681  1.0000
  C   C102      1.0  0.50033  0.78056  0.35021  1.0000
  H   H76       1.0  0.51509  0.69847  0.33677  1.0000
  H   H77       1.0  0.51581  0.81220  0.34488  1.0000
  H   H78       1.0  0.40736  0.70115  0.40446  1.0000
  C   C103      1.0  0.24770  0.69309  0.37619  1.0000
  C   C104      1.0  0.29116  0.71649  0.38689  1.0000
  C   C105      1.0  0.31466  0.75949  0.36952  1.0000
  C   C106      1.0  0.29290  0.77986  0.34287  1.0000
  C   C107      1.0  0.24892  0.75813  0.33575  1.0000
  C   C108      1.0  0.22709  0.71442  0.34864  1.0000
  H   H79       1.0  0.30905  0.81142  0.33614  1.0000
  H   H80       1.0  0.19543  0.69825  0.34383  1.0000
  H   H81       1.0  0.30671  0.70095  0.40157  1.0000
  C   C109      1.0  0.69916  0.45226  0.37714  1.0000
  C   C110      1.0  0.72253  0.43215  0.38745  1.0000
  C   C111      1.0  0.76549  0.45156  0.36958  1.0000
  C   C112      1.0  0.78585  0.49365  0.34262  1.0000
  C   C113      1.0  0.76418  0.51598  0.33595  1.0000
  C   C114      1.0  0.72049  0.49416  0.34922  1.0000
  H   H82       1.0  0.81741  0.50904  0.33594  1.0000
  H   H83       1.0  0.70434  0.50967  0.34453  1.0000
  H   H84       1.0  0.70698  0.40106  0.40217  1.0000
  C   C115      1.0  0.55516  0.24113  0.37822  1.0000
  C   C116      1.0  0.57526  0.28459  0.38898  1.0000
  C   C117      1.0  0.55596  0.30821  0.37064  1.0000
  C   C118      1.0  0.51393  0.28654  0.34324  1.0000
  C   C119      1.0  0.49155  0.24254  0.33656  1.0000
  C   C120      1.0  0.51331  0.22062  0.34997  1.0000
  H   H85       1.0  0.49858  0.30274  0.33636  1.0000
  H   H86       1.0  0.49777  0.18896  0.34517  1.0000
  H   H87       1.0  0.60634  0.30007  0.40378  1.0000
  C   C121      1.0  0.76626  0.30843  0.37759  1.0000
  C   C122      1.0  0.72282  0.28505  0.38861  1.0000
  C   C123      1.0  0.69922  0.24211  0.37052  1.0000
  C   C124      1.0  0.72090  0.22175  0.34319  1.0000
  C   C125      1.0  0.76489  0.24340  0.33617  1.0000
  C   C126      1.0  0.78678  0.28709  0.34940  1.0000
  H   H88       1.0  0.70469  0.19019  0.33635  1.0000
  H   H89       1.0  0.81843  0.30325  0.34431  1.0000
  H   H90       1.0  0.70732  0.30063  0.40345  1.0000
  C   C127      1.0  0.18545  0.35333  0.33567  1.0000
  C   C128      1.0  0.21540  0.37764  0.40198  1.0000
  C   C129      1.0  0.22521  0.36044  0.48225  1.0000
  H   H91       1.0  0.19675  0.33920  0.51794  1.0000
  H   H92       1.0  0.24530  0.38497  0.52912  1.0000
  H   H93       1.0  0.24121  0.34396  0.46225  1.0000
  N   N19       1.0  0.23436  0.41965  0.39467  1.0000
  C   C130      1.0  0.65404  0.82653  0.33581  1.0000
  C   C131      1.0  0.62976  0.83229  0.40201  1.0000
  C   C132      1.0  0.64698  0.85938  0.48215  1.0000
  H   H94       1.0  0.66824  0.85221  0.51789  1.0000
  H   H95       1.0  0.62247  0.85497  0.52903  1.0000
  H   H96       1.0  0.66343  0.89184  0.46201  1.0000
  N   N20       1.0  0.58775  0.80919  0.39485  1.0000
  C   C133      1.0  0.18096  0.82209  0.33559  1.0000
  C   C134      1.0  0.17529  0.79205  0.40170  1.0000
  C   C135      1.0  0.14822  0.78211  0.48190  1.0000
  H   H97       1.0  0.15535  0.81051  0.51772  1.0000
  H   H98       1.0  0.15269  0.76201  0.52870  1.0000
  H   H99       1.0  0.11576  0.76605  0.46180  1.0000
  N   N21       1.0  0.19840  0.77316  0.39429  1.0000
  C   C136      1.0  0.82820  0.64791  0.33557  1.0000
  C   C137      1.0  0.79823  0.62358  0.40183  1.0000
  C   C138      1.0  0.78837  0.64075  0.48206  1.0000
  H   H100      1.0  0.81681  0.66200  0.51780  1.0000
  H   H101      1.0  0.76829  0.61621  0.52891  1.0000
  H   H102      1.0  0.77235  0.65720  0.46204  1.0000
  N   N22       1.0  0.77932  0.58157  0.39451  1.0000
  C   C139      1.0  0.35962  0.17476  0.33577  1.0000
  C   C140      1.0  0.38389  0.16904  0.40203  1.0000
  C   C141      1.0  0.36666  0.14194  0.48216  1.0000
  H   H103      1.0  0.34538  0.14909  0.51786  1.0000
  H   H104      1.0  0.39117  0.14637  0.52908  1.0000
  H   H105      1.0  0.35024  0.10949  0.46201  1.0000
  N   N23       1.0  0.42591  0.19211  0.39484  1.0000
  C   C142      1.0  0.83269  0.17927  0.33559  1.0000
  C   C143      1.0  0.83845  0.20933  0.40171  1.0000
  C   C144      1.0  0.86551  0.21921  0.48190  1.0000
  H   H106      1.0  0.85833  0.19079  0.51768  1.0000
  H   H107      1.0  0.86108  0.23932  0.52873  1.0000
  H   H108      1.0  0.89797  0.23522  0.46181  1.0000
  N   N24       1.0  0.81537  0.22826  0.39442  1.0000
  C   C145      1.0  0.21073  0.23803  0.49375  1.0000
  C   C146      1.0  0.20769  0.21879  0.40457  1.0000
  H   H109      1.0  0.20021  0.21428  0.54619  1.0000
  H   H110      1.0  0.19197  0.25288  0.49839  1.0000
  H   H111      1.0  0.24294  0.26127  0.50705  1.0000
  N   N25       1.0  0.22776  0.19683  0.39547  1.0000
  C   C147      1.0  0.18417  0.21979  0.33007  1.0000
  C   C148      1.0  0.76978  0.96708  0.49403  1.0000
  C   C149      1.0  0.78884  0.98329  0.40471  1.0000
  H   H112      1.0  0.79365  0.98022  0.54622  1.0000
  H   H113      1.0  0.75486  0.93345  0.49853  1.0000
  H   H114      1.0  0.74663  0.97611  0.50779  1.0000
  N   N26       1.0  0.81080  0.02533  0.39566  1.0000
  C   C150      1.0  0.78762  0.95878  0.32998  1.0000
  C   C151      1.0  0.04015  0.79554  0.49288  1.0000
  C   C152      1.0  0.02406  0.79924  0.40411  1.0000
  H   H115      1.0  0.02678  0.80556  0.54600  1.0000
  H   H116      1.0  0.07375  0.81438  0.49787  1.0000
  H   H117      1.0  0.03128  0.76326  0.50480  1.0000
  N   N27       1.0  0.98203  0.77926  0.39492  1.0000
  C   C153      1.0  0.04864  0.82330  0.33019  1.0000
  C   C154      1.0  0.80342  0.76371  0.49413  1.0000
  C   C155      1.0  0.80620  0.78273  0.40480  1.0000
  H   H118      1.0  0.81422  0.78761  0.54626  1.0000
  H   H119      1.0  0.82210  0.74876  0.49856  1.0000
  H   H120      1.0  0.77124  0.74060  0.50805  1.0000
  N   N28       1.0  0.78612  0.80468  0.39576  1.0000
  C   C156      1.0  0.82941  0.78143  0.32997  1.0000
  C   C157      1.0  0.24445  0.03417  0.49357  1.0000
  C   C158      1.0  0.22509  0.01799  0.40449  1.0000
  H   H121      1.0  0.22078  0.02095  0.54616  1.0000
  H   H122      1.0  0.25932  0.06778  0.49824  1.0000
  H   H123      1.0  0.26770  0.02518  0.50661  1.0000
  N   N29       1.0  0.20307  0.97596  0.39541  1.0000
  C   C159      1.0  0.22603  0.04252  0.33005  1.0000
  C   C160      1.0  0.97334  0.20505  0.49330  1.0000
  C   C161      1.0  0.98950  0.20170  0.40432  1.0000
  H   H124      1.0  0.98662  0.19475  0.54607  1.0000
  H   H125      1.0  0.93973  0.18626  0.49808  1.0000
  H   H126      1.0  0.98228  0.23729  0.50596  1.0000
  N   N30       1.0  0.03153  0.22172  0.39521  1.0000
  C   C162      1.0  0.96496  0.17794  0.33007  1.0000
  C   C163      1.0  0.25182  0.65395  0.55511  1.0000
  C   C164      1.0  0.23828  0.63325  0.46626  1.0000
  H   H127      1.0  0.23304  0.63245  0.60828  1.0000
  H   H128      1.0  0.24840  0.68131  0.55993  1.0000
  H   H129      1.0  0.28426  0.66324  0.56663  1.0000
  N   N31       1.0  0.24013  0.59821  0.45480  1.0000
  C   C165      1.0  0.22808  0.64969  0.39030  1.0000
  C   C166      1.0  0.35309  0.59194  0.55637  1.0000
  C   C167      1.0  0.37407  0.59924  0.46782  1.0000
  H   H130      1.0  0.37449  0.59476  0.60988  1.0000
  H   H131      1.0  0.32583  0.56108  0.56091  1.0000
  H   H132      1.0  0.34359  0.61495  0.56757  1.0000
  N   N32       1.0  0.40902  0.63625  0.45662  1.0000
  C   C168      1.0  0.35807  0.57273  0.39156  1.0000
  C   C169      1.0  0.41476  0.75596  0.55687  1.0000
  C   C170      1.0  0.40790  0.76958  0.46783  1.0000
  H   H133      1.0  0.41197  0.77476  0.60988  1.0000
  H   H134      1.0  0.44549  0.75929  0.56215  1.0000
  H   H135      1.0  0.39152  0.72354  0.56823  1.0000
  N   N33       1.0  0.37106  0.76781  0.45581  1.0000
  C   C171      1.0  0.43470  0.77970  0.39216  1.0000
  C   C172      1.0  0.76230  0.34769  0.55643  1.0000
  C   C173      1.0  0.77577  0.36830  0.46749  1.0000
  H   H136      1.0  0.78109  0.36925  0.60950  1.0000
  H   H137      1.0  0.76576  0.32036  0.56136  1.0000
  H   H138      1.0  0.72985  0.33837  0.56800  1.0000
  N   N34       1.0  0.77382  0.40329  0.45574  1.0000
  C   C174      1.0  0.78592  0.35188  0.39147  1.0000
  C   C175      1.0  0.66045  0.40908  0.55597  1.0000
  C   C176      1.0  0.63960  0.40185  0.46729  1.0000
  H   H139      1.0  0.63900  0.40627  0.60934  1.0000
  H   H140      1.0  0.68773  0.43992  0.56068  1.0000
  H   H141      1.0  0.66990  0.38604  0.56727  1.0000
  N   N35       1.0  0.60461  0.36488  0.45604  1.0000
  C   C177      1.0  0.65573  0.42843  0.39111  1.0000
  C   C178      1.0  0.59851  0.24532  0.55711  1.0000
  C   C179      1.0  0.60567  0.23180  0.46823  1.0000
  H   H142      1.0  0.60135  0.22661  0.61026  1.0000
  H   H143      1.0  0.56769  0.24178  0.56205  1.0000
  H   H144      1.0  0.62158  0.27779  0.56855  1.0000
  N   N36       1.0  0.64265  0.23386  0.45658  1.0000
  C   C180      1.0  0.57893  0.22149  0.39238  1.0000
