data_image0
_chemical_formula_structural       C2HC2H2C4NHC8HC7HCH4C8HC7HCH4C5H3NO2C5H2NH2NO2C5H2NH2NO2C5H2NH2NO2C5H2NH2NO2C5H2NH2NO2C8H4C3HC4HN2H2O2C3HC4HN2H2O2C7HN2H2O2C3HC4HN2H2O2C3HC4HN2H2O2C3HC4HN2H2O2
_chemical_formula_sum              "C120 H66 N24 O24"
_cell_length_a       30.1377
_cell_length_b       30.1377
_cell_length_c       14.8815
_cell_angle_alpha    90.0016
_cell_angle_beta     89.9984
_cell_angle_gamma    120

_space_group_name_H-M_alt    "P 1"
_space_group_IT_number       1

loop_
  _space_group_symop_operation_xyz
  'x, y, z'

loop_
  _atom_site_type_symbol
  _atom_site_label
  _atom_site_symmetry_multiplicity
  _atom_site_fract_x
  _atom_site_fract_y
  _atom_site_fract_z
  _atom_site_occupancy
  C   C1        1.0  0.04152  0.59873  0.34499  1.0000
  C   C2        1.0  0.04191  0.69277  0.34257  1.0000
  H   H1        1.0  0.04185  0.72678  0.34066  1.0000
  C   C3        1.0  0.04122  0.55089  0.34498  1.0000
  C   C4        1.0  0.04083  0.45684  0.34251  1.0000
  H   H2        1.0  0.04089  0.42284  0.34058  1.0000
  H   H3        1.0  0.09486  0.47921  0.17604  1.0000
  C   C5        1.0  0.08932  0.69381  0.34324  1.0000
  C   C6        1.0  0.08889  0.64624  0.34541  1.0000
  C   C7        1.0  0.08826  0.50308  0.34323  1.0000
  C   C8        1.0  0.08837  0.55041  0.34467  1.0000
  N   N1        1.0  0.12509  0.47589  0.18313  1.0000
  H   H4        1.0  0.11969  0.76759  0.46330  1.0000
  C   C9        1.0  0.51744  0.55102  0.34496  1.0000
  C   C10       1.0  0.51696  0.50339  0.34467  1.0000
  C   C11       1.0  0.46963  0.45617  0.34325  1.0000
  C   C12       1.0  0.42339  0.45736  0.34252  1.0000
  C   C13       1.0  0.42236  0.50374  0.34320  1.0000
  C   C14       1.0  0.46993  0.55087  0.34536  1.0000
  C   C15       1.0  0.56445  0.50464  0.34642  1.0000
  C   C16       1.0  0.47181  0.59864  0.34937  1.0000
  H   H5        1.0  0.38939  0.42330  0.34063  1.0000
  C   C17       1.0  0.56528  0.59856  0.34495  1.0000
  C   C18       1.0  0.61279  0.59870  0.34539  1.0000
  C   C19       1.0  0.66036  0.64584  0.34322  1.0000
  C   C20       1.0  0.65933  0.69221  0.34252  1.0000
  C   C21       1.0  0.61309  0.69340  0.34322  1.0000
  C   C22       1.0  0.56576  0.64618  0.34464  1.0000
  C   C23       1.0  0.61091  0.55094  0.34944  1.0000
  H   H6        1.0  0.69333  0.72627  0.34062  1.0000
  C   C24       1.0  0.51827  0.64493  0.34635  1.0000
  H   H7        1.0  0.64361  0.54881  0.35373  1.0000
  H   H8        1.0  0.56621  0.47165  0.34654  1.0000
  H   H9        1.0  0.51651  0.67792  0.34645  1.0000
  H   H10       1.0  0.43910  0.60077  0.35362  1.0000
  C   C25       1.0  0.56515  0.07465  0.34495  1.0000
  C   C26       1.0  0.61278  0.12179  0.34463  1.0000
  C   C27       1.0  0.66000  0.12168  0.34320  1.0000
  C   C28       1.0  0.65881  0.07426  0.34250  1.0000
  C   C29       1.0  0.61243  0.02685  0.34320  1.0000
  C   C30       1.0  0.56529  0.02728  0.34539  1.0000
  C   C31       1.0  0.61153  0.16803  0.34632  1.0000
  C   C32       1.0  0.51753  0.98140  0.34947  1.0000
  H   H11       1.0  0.69287  0.07432  0.34060  1.0000
  C   C33       1.0  0.51761  0.07495  0.34496  1.0000
  C   C34       1.0  0.51747  0.12232  0.34536  1.0000
  C   C35       1.0  0.47033  0.12274  0.34320  1.0000
  C   C36       1.0  0.42396  0.07534  0.34254  1.0000
  C   C37       1.0  0.42277  0.02791  0.34326  1.0000
  C   C38       1.0  0.46999  0.02780  0.34469  1.0000
  C   C39       1.0  0.56523  0.16820  0.34936  1.0000
  H   H12       1.0  0.38989  0.07528  0.34064  1.0000
  C   C40       1.0  0.47124  0.98156  0.34643  1.0000
  H   H13       1.0  0.56736  0.20304  0.35358  1.0000
  H   H14       1.0  0.64452  0.20278  0.34639  1.0000
  H   H15       1.0  0.43825  0.94682  0.34658  1.0000
  H   H16       1.0  0.51540  0.94656  0.35375  1.0000
  C   C41       1.0  0.37309  0.50052  0.34093  1.0000
  C   C42       1.0  0.35737  0.51988  0.26822  1.0000
  C   C43       1.0  0.30909  0.51714  0.27182  1.0000
  C   C44       1.0  0.19602  0.48247  0.26562  1.0000
  C   C45       1.0  0.15069  0.48572  0.26273  1.0000
  H   H17       1.0  0.20709  0.47134  0.20889  1.0000
  H   H18       1.0  0.29976  0.53355  0.22043  1.0000
  H   H19       1.0  0.13749  0.46713  0.12937  1.0000
  N   N2        1.0  0.38989  0.54110  0.19256  1.0000
  O   O1        1.0  0.40103  0.58663  0.17811  1.0000
  O   O2        1.0  0.36931  0.51531  0.12300  1.0000
  C   C46       1.0  0.61564  0.98079  0.34096  1.0000
  C   C47       1.0  0.59625  0.94568  0.26829  1.0000
  C   C48       1.0  0.59900  0.90014  0.27191  1.0000
  C   C49       1.0  0.63374  0.82180  0.26567  1.0000
  C   C50       1.0  0.63049  0.77322  0.26276  1.0000
  H   H20       1.0  0.64488  0.84400  0.20896  1.0000
  H   H21       1.0  0.58258  0.87439  0.22053  1.0000
  N   N3        1.0  0.64033  0.75746  0.18316  1.0000
  H   H22       1.0  0.64917  0.77865  0.12944  1.0000
  H   H23       1.0  0.63708  0.72394  0.17607  1.0000
  N   N4        1.0  0.57500  0.95695  0.19265  1.0000
  O   O3        1.0  0.52947  0.92256  0.17825  1.0000
  O   O4        1.0  0.60077  0.96215  0.12306  1.0000
  C   C51       1.0  0.13537  0.74308  0.34097  1.0000
  C   C52       1.0  0.17046  0.75880  0.26826  1.0000
  C   C53       1.0  0.21600  0.80708  0.27187  1.0000
  C   C54       1.0  0.29440  0.92014  0.26566  1.0000
  C   C55       1.0  0.34298  0.96548  0.26277  1.0000
  H   H24       1.0  0.27221  0.90908  0.20893  1.0000
  H   H25       1.0  0.24174  0.81640  0.22047  1.0000
  N   N5        1.0  0.35875  0.99107  0.18317  1.0000
  H   H26       1.0  0.33760  0.97867  0.12941  1.0000
  H   H27       1.0  0.39230  0.02130  0.17607  1.0000
  N   N6        1.0  0.15917  0.72628  0.19261  1.0000
  O   O5        1.0  0.19355  0.71513  0.17817  1.0000
  O   O6        1.0  0.15395  0.74685  0.12304  1.0000
  C   C56       1.0  0.70963  0.64905  0.34098  1.0000
  C   C57       1.0  0.72535  0.62966  0.26830  1.0000
  C   C58       1.0  0.77364  0.63242  0.27193  1.0000
  C   C59       1.0  0.88673  0.66717  0.26570  1.0000
  C   C60       1.0  0.93207  0.66394  0.26281  1.0000
  H   H28       1.0  0.87567  0.67832  0.20899  1.0000
  H   H29       1.0  0.78298  0.61600  0.22054  1.0000
  N   N7        1.0  0.95767  0.67378  0.18321  1.0000
  H   H30       1.0  0.94532  0.68262  0.12949  1.0000
  H   H31       1.0  0.98794  0.67054  0.17612  1.0000
  N   N8        1.0  0.69284  0.60842  0.19265  1.0000
  O   O7        1.0  0.68170  0.56288  0.17825  1.0000
  O   O8        1.0  0.71341  0.63419  0.12307  1.0000
  C   C61       1.0  0.46712  0.16880  0.34094  1.0000
  C   C62       1.0  0.48646  0.20388  0.26823  1.0000
  C   C63       1.0  0.48371  0.24941  0.27183  1.0000
  C   C64       1.0  0.44904  0.32780  0.26564  1.0000
  C   C65       1.0  0.45227  0.37638  0.26275  1.0000
  H   H32       1.0  0.43790  0.30561  0.20891  1.0000
  H   H33       1.0  0.50012  0.27515  0.22043  1.0000
  N   N9        1.0  0.44244  0.39214  0.18316  1.0000
  H   H34       1.0  0.43369  0.37099  0.12939  1.0000
  H   H35       1.0  0.44575  0.42569  0.17606  1.0000
  N   N10       1.0  0.50768  0.19258  0.19256  1.0000
  O   O9        1.0  0.55321  0.22697  0.17811  1.0000
  O   O10       1.0  0.48188  0.18736  0.12301  1.0000
  C   C66       1.0  0.94737  0.40654  0.34094  1.0000
  C   C67       1.0  0.91226  0.39082  0.26827  1.0000
  C   C68       1.0  0.86673  0.34253  0.27188  1.0000
  C   C69       1.0  0.78840  0.22944  0.26566  1.0000
  C   C70       1.0  0.73982  0.18410  0.26275  1.0000
  H   H36       1.0  0.81061  0.24050  0.20894  1.0000
  H   H37       1.0  0.84098  0.33320  0.22049  1.0000
  N   N11       1.0  0.72407  0.15850  0.18315  1.0000
  H   H38       1.0  0.74527  0.17085  0.12943  1.0000
  H   H39       1.0  0.69055  0.12822  0.17606  1.0000
  N   N12       1.0  0.92354  0.42333  0.19261  1.0000
  O   O11       1.0  0.88915  0.43447  0.17821  1.0000
  O   O12       1.0  0.92875  0.40277  0.12304  1.0000
  C   C71       1.0  0.99438  0.59921  0.34469  1.0000
  C   C72       1.0  0.99448  0.64654  0.34327  1.0000
  C   C73       1.0  0.94814  0.55172  0.34642  1.0000
  C   C74       1.0  0.13477  0.64436  0.34943  1.0000
  C   C75       1.0  0.99386  0.50338  0.34539  1.0000
  C   C76       1.0  0.99342  0.45581  0.34320  1.0000
  C   C77       1.0  0.94797  0.50526  0.34943  1.0000
  C   C78       1.0  0.13461  0.59790  0.34641  1.0000
  H   H40       1.0  0.91313  0.47255  0.35365  1.0000
  H   H41       1.0  0.91339  0.54996  0.34648  1.0000
  H   H42       1.0  0.16935  0.59966  0.34650  1.0000
  H   H43       1.0  0.16961  0.67707  0.35369  1.0000
  C   C79       1.0  0.27410  0.49322  0.34357  1.0000
  C   C80       1.0  0.28845  0.47026  0.41330  1.0000
  C   C81       1.0  0.33804  0.47579  0.41191  1.0000
  H   H44       1.0  0.34859  0.46033  0.46326  1.0000
  C   C82       1.0  0.22681  0.49436  0.34355  1.0000
  C   C83       1.0  0.13420  0.49975  0.34226  1.0000
  C   C84       1.0  0.16416  0.51119  0.42176  1.0000
  C   C85       1.0  0.21046  0.50984  0.42036  1.0000
  H   H45       1.0  0.23236  0.52003  0.47738  1.0000
  N   N13       1.0  0.14735  0.52381  0.50180  1.0000
  N   N14       1.0  0.25592  0.44130  0.48016  1.0000
  H   H46       1.0  0.26612  0.42451  0.52484  1.0000
  H   H47       1.0  0.21982  0.43084  0.47863  1.0000
  O   O13       1.0  0.13910  0.49187  0.56301  1.0000
  O   O14       1.0  0.17931  0.56773  0.52987  1.0000
  C   C86       1.0  0.62296  0.88911  0.34363  1.0000
  C   C87       1.0  0.64594  0.92643  0.41332  1.0000
  C   C88       1.0  0.64044  0.97051  0.41188  1.0000
  H   H48       1.0  0.65594  0.99654  0.46319  1.0000
  C   C89       1.0  0.62184  0.84069  0.34360  1.0000
  C   C90       1.0  0.61642  0.74267  0.34227  1.0000
  C   C91       1.0  0.60496  0.76117  0.42176  1.0000
  C   C92       1.0  0.60631  0.80883  0.42038  1.0000
  H   H49       1.0  0.59609  0.82052  0.47738  1.0000
  N   N15       1.0  0.59230  0.73173  0.50178  1.0000
  N   N16       1.0  0.67501  0.92295  0.48004  1.0000
  H   H50       1.0  0.69149  0.94971  0.52520  1.0000
  H   H51       1.0  0.68513  0.89705  0.47918  1.0000
  O   O15       1.0  0.62422  0.75540  0.56303  1.0000
  O   O16       1.0  0.54837  0.71977  0.52981  1.0000
  C   C93       1.0  0.22706  0.84207  0.34361  1.0000
  C   C94       1.0  0.18976  0.82772  0.41334  1.0000
  C   C95       1.0  0.14569  0.77813  0.41195  1.0000
  C   C96       1.0  0.27550  0.88936  0.34359  1.0000
  C   C97       1.0  0.37350  0.98197  0.34230  1.0000
  C   C98       1.0  0.35498  0.95202  0.42180  1.0000
  C   C99       1.0  0.30733  0.90571  0.42040  1.0000
  H   H52       1.0  0.29562  0.88382  0.47743  1.0000
  N   N17       1.0  0.38440  0.96883  0.50184  1.0000
  N   N18       1.0  0.19332  0.86025  0.48020  1.0000
  H   H53       1.0  0.16633  0.85006  0.52487  1.0000
  H   H54       1.0  0.21896  0.89635  0.47867  1.0000
  O   O17       1.0  0.36071  0.97708  0.56305  1.0000
  O   O18       1.0  0.39636  0.93686  0.52992  1.0000
  C   C100      1.0  0.80863  0.65638  0.34365  1.0000
  C   C101      1.0  0.79428  0.67935  0.41334  1.0000
  C   C102      1.0  0.74469  0.67384  0.41190  1.0000
  H   H55       1.0  0.73416  0.68933  0.46322  1.0000
  C   C103      1.0  0.85594  0.65527  0.34363  1.0000
  C   C104      1.0  0.94855  0.64987  0.34231  1.0000
  C   C105      1.0  0.91857  0.63840  0.42180  1.0000
  C   C106      1.0  0.87227  0.63974  0.42041  1.0000
  H   H56       1.0  0.85035  0.62952  0.47741  1.0000
  N   N19       1.0  0.93536  0.62574  0.50182  1.0000
  N   N20       1.0  0.82682  0.70842  0.48008  1.0000
  H   H57       1.0  0.81653  0.72490  0.52524  1.0000
  H   H58       1.0  0.86285  0.71855  0.47921  1.0000
  O   O19       1.0  0.94360  0.65766  0.56307  1.0000
  O   O20       1.0  0.90339  0.58181  0.52984  1.0000
  C   C107      1.0  0.45979  0.26047  0.34359  1.0000
  C   C108      1.0  0.43684  0.22317  0.41332  1.0000
  C   C109      1.0  0.44238  0.17911  0.41192  1.0000
  H   H59       1.0  0.42693  0.15311  0.46328  1.0000
  C   C110      1.0  0.46092  0.30891  0.34357  1.0000
  C   C111      1.0  0.46630  0.40690  0.34228  1.0000
  C   C112      1.0  0.47774  0.38838  0.42178  1.0000
  C   C113      1.0  0.47640  0.34074  0.42037  1.0000
  H   H60       1.0  0.48659  0.32903  0.47740  1.0000
  N   N21       1.0  0.49036  0.41781  0.50182  1.0000
  N   N22       1.0  0.40788  0.22673  0.48018  1.0000
  H   H61       1.0  0.39109  0.19974  0.52486  1.0000
  H   H62       1.0  0.39741  0.25237  0.47865  1.0000
  O   O21       1.0  0.45842  0.39411  0.56303  1.0000
  O   O22       1.0  0.53428  0.42977  0.52989  1.0000
  C   C114      1.0  0.85569  0.30754  0.34361  1.0000
  C   C115      1.0  0.89301  0.32189  0.41332  1.0000
  C   C116      1.0  0.93709  0.37148  0.41187  1.0000
  H   H63       1.0  0.96311  0.38201  0.46320  1.0000
  C   C117      1.0  0.80727  0.26023  0.34358  1.0000
  C   C118      1.0  0.70927  0.16762  0.34225  1.0000
  C   C119      1.0  0.72776  0.19760  0.42174  1.0000
  C   C120      1.0  0.77541  0.24390  0.42035  1.0000
  H   H64       1.0  0.78710  0.26582  0.47736  1.0000
  N   N23       1.0  0.69831  0.18081  0.50175  1.0000
  N   N24       1.0  0.88953  0.28935  0.48006  1.0000
  H   H65       1.0  0.91629  0.29964  0.52522  1.0000
  H   H66       1.0  0.86363  0.25332  0.47919  1.0000
  O   O23       1.0  0.72199  0.17257  0.56301  1.0000
  O   O24       1.0  0.68635  0.21278  0.52977  1.0000
