data_image0
_chemical_formula_structural       C4HC4HO2H2N2C4HC4HO2H2N2C4HC4HO2H2N2C3HCH3CHC3HCH3CHC3HCH3CHC3HCH3CHC3HCH3CHC3HCH3CHC2HC2HN2C2HC2HN2C2HC2HN2C3HCH3CHC3HCH3CHC3HCH3CHC3HCH3CHC3HCH3CHC3HCH3CH
_chemical_formula_sum              "C96 H78 O6 N12"
_cell_length_a       31.7162
_cell_length_b       31.7162
_cell_length_c       15.094
_cell_angle_alpha    90
_cell_angle_beta     90
_cell_angle_gamma    120

_space_group_name_H-M_alt    "P 1"
_space_group_IT_number       1

loop_
  _space_group_symop_operation_xyz
  'x, y, z'

loop_
  _atom_site_type_symbol
  _atom_site_label
  _atom_site_symmetry_multiplicity
  _atom_site_fract_x
  _atom_site_fract_y
  _atom_site_fract_z
  _atom_site_occupancy
  C   C1        1.0  0.96945  0.48463  0.31828  1.0000
  C   C2        1.0  0.86653  0.43812  0.32225  1.0000
  C   C3        1.0  0.88914  0.41027  0.30710  1.0000
  C   C4        1.0  0.94018  0.43426  0.29613  1.0000
  H   H1        1.0  0.82933  0.42146  0.32366  1.0000
  C   C5        1.0  0.02125  0.50920  0.31832  1.0000
  C   C6        1.0  0.05053  0.55957  0.29620  1.0000
  C   C7        1.0  0.10157  0.58355  0.30719  1.0000
  C   C8        1.0  0.12416  0.55567  0.32231  1.0000
  H   H2        1.0  0.16136  0.57231  0.32365  1.0000
  O   O1        1.0  0.95999  0.40865  0.25937  1.0000
  O   O2        1.0  0.03075  0.58519  0.25941  1.0000
  H   H3        1.0  0.95540  0.38289  0.30126  1.0000
  H   H4        1.0  0.03531  0.61093  0.30132  1.0000
  N   N1        1.0  0.12713  0.63280  0.30716  1.0000
  N   N2        1.0  0.86359  0.36101  0.30706  1.0000
  C   C9        1.0  0.50762  0.48327  0.31827  1.0000
  C   C10       1.0  0.55410  0.42684  0.32217  1.0000
  C   C11       1.0  0.58197  0.47731  0.30702  1.0000
  C   C12       1.0  0.55798  0.50436  0.29609  1.0000
  H   H5        1.0  0.57076  0.40631  0.32356  1.0000
  C   C13       1.0  0.48305  0.51051  0.31834  1.0000
  C   C14       1.0  0.43267  0.48941  0.29625  1.0000
  C   C15       1.0  0.40869  0.51647  0.30727  1.0000
  C   C16       1.0  0.43656  0.56693  0.32239  1.0000
  H   H6        1.0  0.41991  0.58748  0.32374  1.0000
  O   O3        1.0  0.58359  0.54978  0.25933  1.0000
  O   O4        1.0  0.40705  0.44400  0.25946  1.0000
  H   H7        1.0  0.60935  0.57095  0.30122  1.0000
  H   H8        1.0  0.38131  0.42282  0.30136  1.0000
  N   N3        1.0  0.35943  0.49277  0.30723  1.0000
  N   N4        1.0  0.63122  0.50102  0.30699  1.0000
  C   C17       1.0  0.50895  0.02278  0.31826  1.0000
  C   C18       1.0  0.56537  0.12570  0.32217  1.0000
  C   C19       1.0  0.51490  0.10309  0.30707  1.0000
  C   C20       1.0  0.48785  0.05205  0.29613  1.0000
  H   H9        1.0  0.58589  0.16289  0.32357  1.0000
  C   C21       1.0  0.48172  0.97097  0.31836  1.0000
  C   C22       1.0  0.50280  0.94168  0.29622  1.0000
  C   C23       1.0  0.47573  0.89065  0.30721  1.0000
  C   C24       1.0  0.42526  0.86806  0.32237  1.0000
  H   H10       1.0  0.40470  0.83088  0.32370  1.0000
  O   O5        1.0  0.44241  0.03222  0.25942  1.0000
  O   O6        1.0  0.54819  0.96145  0.25939  1.0000
  H   H11       1.0  0.42126  0.03682  0.30133  1.0000
  H   H12       1.0  0.56938  0.95690  0.30128  1.0000
  N   N5        1.0  0.49940  0.86507  0.30712  1.0000
  N   N6        1.0  0.49118  0.12862  0.30709  1.0000
  C   C25       1.0  0.18713  0.46795  0.30538  1.0000
  C   C26       1.0  0.21596  0.46341  0.23795  1.0000
  C   C27       1.0  0.26175  0.46932  0.26076  1.0000
  H   H13       1.0  0.28370  0.46966  0.21061  1.0000
  C   C28       1.0  0.20114  0.45336  0.14309  1.0000
  H   H14       1.0  0.16324  0.44320  0.13221  1.0000
  H   H15       1.0  0.20527  0.42309  0.11936  1.0000
  H   H16       1.0  0.22424  0.48551  0.10322  1.0000
  C   C29       1.0  0.15145  0.48038  0.28489  1.0000
  H   H17       1.0  0.15399  0.49667  0.22493  1.0000
  C   C30       1.0  0.52436  0.71767  0.30528  1.0000
  C   C31       1.0  0.52887  0.75101  0.23783  1.0000
  C   C32       1.0  0.52282  0.79080  0.26060  1.0000
  H   H18       1.0  0.52261  0.81253  0.21053  1.0000
  C   C33       1.0  0.53894  0.74623  0.14300  1.0000
  H   H19       1.0  0.54910  0.71849  0.13218  1.0000
  H   H20       1.0  0.56920  0.78062  0.11925  1.0000
  H   H21       1.0  0.50679  0.73716  0.10310  1.0000
  C   C34       1.0  0.51179  0.66951  0.28495  1.0000
  H   H22       1.0  0.49550  0.65575  0.22498  1.0000
  C   C35       1.0  0.27460  0.80510  0.30549  1.0000
  C   C36       1.0  0.24126  0.77630  0.23799  1.0000
  C   C37       1.0  0.20139  0.73050  0.26077  1.0000
  H   H23       1.0  0.17978  0.70855  0.21059  1.0000
  C   C38       1.0  0.24603  0.79114  0.14315  1.0000
  H   H24       1.0  0.27375  0.82906  0.13230  1.0000
  H   H25       1.0  0.21163  0.78699  0.11940  1.0000
  H   H26       1.0  0.25512  0.76808  0.10326  1.0000
  C   C39       1.0  0.32270  0.84081  0.28499  1.0000
  H   H27       1.0  0.33645  0.83828  0.22501  1.0000
  C   C40       1.0  0.80356  0.52592  0.30527  1.0000
  C   C41       1.0  0.77475  0.53046  0.23781  1.0000
  C   C42       1.0  0.72893  0.52445  0.26057  1.0000
  H   H28       1.0  0.70700  0.52426  0.21050  1.0000
  C   C43       1.0  0.78962  0.54054  0.14299  1.0000
  H   H29       1.0  0.82752  0.55068  0.13218  1.0000
  H   H30       1.0  0.78551  0.57082  0.11925  1.0000
  H   H31       1.0  0.76653  0.50840  0.10307  1.0000
  C   C44       1.0  0.83912  0.51331  0.28495  1.0000
  H   H32       1.0  0.83659  0.49704  0.22496  1.0000
  C   C45       1.0  0.46639  0.27613  0.30536  1.0000
  C   C46       1.0  0.46183  0.24276  0.23792  1.0000
  C   C47       1.0  0.46772  0.20286  0.26070  1.0000
  H   H33       1.0  0.46805  0.18125  0.21053  1.0000
  C   C48       1.0  0.45177  0.24753  0.14307  1.0000
  H   H34       1.0  0.44161  0.27528  0.13220  1.0000
  H   H35       1.0  0.42149  0.21314  0.11933  1.0000
  H   H36       1.0  0.48391  0.25657  0.10318  1.0000
  C   C49       1.0  0.47885  0.32425  0.28490  1.0000
  H   H37       1.0  0.49512  0.33797  0.22491  1.0000
  C   C50       1.0  0.71615  0.18869  0.30521  1.0000
  C   C51       1.0  0.74950  0.21750  0.23777  1.0000
  C   C52       1.0  0.78932  0.26332  0.26057  1.0000
  H   H38       1.0  0.81108  0.28526  0.21052  1.0000
  C   C53       1.0  0.74473  0.20267  0.14294  1.0000
  H   H39       1.0  0.71696  0.16477  0.13210  1.0000
  H   H40       1.0  0.77911  0.20676  0.11921  1.0000
  H   H41       1.0  0.73570  0.22577  0.10303  1.0000
  C   C54       1.0  0.66797  0.15313  0.28486  1.0000
  H   H42       1.0  0.65424  0.15569  0.22488  1.0000
  C   C55       1.0  0.94502  0.50990  0.34459  1.0000
  C   C56       1.0  0.89442  0.48860  0.33635  1.0000
  H   H43       1.0  0.96390  0.54530  0.36498  1.0000
  C   C57       1.0  0.09624  0.50519  0.33642  1.0000
  C   C58       1.0  0.04566  0.48393  0.34482  1.0000
  H   H44       1.0  0.02676  0.44850  0.36503  1.0000
  N   N7        1.0  0.11706  0.47708  0.34210  1.0000
  N   N8        1.0  0.87358  0.51669  0.34205  1.0000
  C   C59       1.0  0.48234  0.43357  0.34460  1.0000
  C   C60       1.0  0.50363  0.40427  0.33633  1.0000
  H   H45       1.0  0.44695  0.41707  0.36504  1.0000
  C   C61       1.0  0.48704  0.58950  0.33644  1.0000
  C   C62       1.0  0.50832  0.56019  0.34482  1.0000
  H   H46       1.0  0.54375  0.57672  0.36498  1.0000
  N   N9        1.0  0.51515  0.63843  0.34209  1.0000
  N   N10       1.0  0.47554  0.35534  0.34207  1.0000
  C   C63       1.0  0.55867  0.04722  0.34451  1.0000
  C   C64       1.0  0.58796  0.09781  0.33624  1.0000
  H   H47       1.0  0.57519  0.02833  0.36490  1.0000
  C   C65       1.0  0.40271  0.89599  0.33651  1.0000
  C   C66       1.0  0.43205  0.94657  0.34491  1.0000
  H   H48       1.0  0.41554  0.96548  0.36512  1.0000
  N   N11       1.0  0.35379  0.87518  0.34221  1.0000
  N   N12       1.0  0.63689  0.11865  0.34194  1.0000
  C   C67       1.0  0.28089  0.48342  0.34720  1.0000
  C   C68       1.0  0.24979  0.48241  0.41626  1.0000
  C   C69       1.0  0.20222  0.47207  0.39466  1.0000
  H   H49       1.0  0.18165  0.47546  0.44344  1.0000
  C   C70       1.0  0.26582  0.49260  0.51056  1.0000
  H   H50       1.0  0.28008  0.46914  0.53121  1.0000
  H   H51       1.0  0.23628  0.48604  0.55581  1.0000
  H   H52       1.0  0.29425  0.53058  0.51801  1.0000
  C   C71       1.0  0.33132  0.50337  0.35949  1.0000
  H   H53       1.0  0.34740  0.52430  0.41430  1.0000
  C   C72       1.0  0.50871  0.79584  0.34702  1.0000
  C   C73       1.0  0.50973  0.76575  0.41609  1.0000
  C   C74       1.0  0.52024  0.72862  0.39458  1.0000
  H   H54       1.0  0.51664  0.70460  0.44340  1.0000
  C   C75       1.0  0.49944  0.77154  0.51037  1.0000
  H   H55       1.0  0.52283  0.80927  0.53106  1.0000
  H   H56       1.0  0.50602  0.74860  0.55566  1.0000
  H   H57       1.0  0.46143  0.76191  0.51771  1.0000
  C   C76       1.0  0.48877  0.82633  0.35934  1.0000
  H   H58       1.0  0.46788  0.82151  0.41419  1.0000
  C   C77       1.0  0.19632  0.71134  0.34719  1.0000
  C   C78       1.0  0.22639  0.74242  0.41629  1.0000
  C   C79       1.0  0.26362  0.79000  0.39474  1.0000
  H   H59       1.0  0.28757  0.81057  0.44355  1.0000
  C   C80       1.0  0.22052  0.72637  0.51058  1.0000
  H   H60       1.0  0.18280  0.71211  0.53120  1.0000
  H   H61       1.0  0.24348  0.75590  0.55586  1.0000
  H   H62       1.0  0.23008  0.69795  0.51803  1.0000
  C   C81       1.0  0.16584  0.66090  0.35944  1.0000
  H   H63       1.0  0.17067  0.64481  0.41425  1.0000
  C   C82       1.0  0.70976  0.51034  0.34698  1.0000
  C   C83       1.0  0.74084  0.51132  0.41606  1.0000
  C   C84       1.0  0.78848  0.52180  0.39456  1.0000
  H   H64       1.0  0.80888  0.51817  0.44339  1.0000
  C   C85       1.0  0.72476  0.50104  0.51033  1.0000
  H   H65       1.0  0.71044  0.52445  0.53102  1.0000
  H   H66       1.0  0.75427  0.50759  0.55564  1.0000
  H   H67       1.0  0.69635  0.46304  0.51766  1.0000
  C   C86       1.0  0.65933  0.49043  0.35929  1.0000
  H   H68       1.0  0.64324  0.46950  0.41410  1.0000
  C   C87       1.0  0.48182  0.19780  0.34712  1.0000
  C   C88       1.0  0.48082  0.22789  0.41620  1.0000
  C   C89       1.0  0.47051  0.26514  0.39462  1.0000
  H   H69       1.0  0.47391  0.28911  0.44342  1.0000
  C   C90       1.0  0.49101  0.22204  0.51050  1.0000
  H   H70       1.0  0.46754  0.18432  0.53113  1.0000
  H   H71       1.0  0.48446  0.24502  0.55576  1.0000
  H   H72       1.0  0.52899  0.23158  0.51795  1.0000
  C   C91       1.0  0.50177  0.16731  0.35939  1.0000
  H   H73       1.0  0.52270  0.17216  0.41418  1.0000
  C   C92       1.0  0.79437  0.28247  0.34699  1.0000
  C   C93       1.0  0.76425  0.25137  0.41605  1.0000
  C   C94       1.0  0.72709  0.20374  0.39451  1.0000
  H   H74       1.0  0.70305  0.18334  0.44332  1.0000
  C   C95       1.0  0.77004  0.26744  0.51033  1.0000
  H   H75       1.0  0.80775  0.28175  0.53104  1.0000
  H   H76       1.0  0.74706  0.23792  0.55561  1.0000
  H   H77       1.0  0.76044  0.29585  0.51766  1.0000
  C   C96       1.0  0.82489  0.33289  0.35934  1.0000
  H   H78       1.0  0.82005  0.34897  0.41416  1.0000
