data_image0
_chemical_formula_structural       C8HC7HCH4C4O3NC2HNHNC2HNHNC2HNHNC2HNHNC2HNHNC2HNHOC8HC7HCH4C4O4C8HC7HCH4C4O4CNC2O2HNHCNC2O2HNHCNC2O2HNHCNC2O2HNHCNC2O2HNHCNC2O2HNH
_chemical_formula_sum              "C90 H42 O24 N24"
_cell_length_a       29.7977
_cell_length_b       29.7976
_cell_length_c       15.1597
_cell_angle_alpha    89.9992
_cell_angle_beta     90.0008
_cell_angle_gamma    120

_space_group_name_H-M_alt    "P 1"
_space_group_IT_number       1

loop_
  _space_group_symop_operation_xyz
  'x, y, z'

loop_
  _atom_site_type_symbol
  _atom_site_label
  _atom_site_symmetry_multiplicity
  _atom_site_fract_x
  _atom_site_fract_y
  _atom_site_fract_z
  _atom_site_occupancy
  C   C1        1.0  0.02158  0.52960  0.32315  1.0000
  C   C2        1.0  0.97374  0.48158  0.32396  1.0000
  C   C3        1.0  0.97397  0.43404  0.32992  1.0000
  C   C4        1.0  0.02152  0.43490  0.32590  1.0000
  C   C5        1.0  0.06912  0.48145  0.32017  1.0000
  C   C6        1.0  0.06937  0.52933  0.32296  1.0000
  C   C7        1.0  0.92717  0.48319  0.32430  1.0000
  C   C8        1.0  0.11596  0.57745  0.32020  1.0000
  H   H1        1.0  0.02146  0.40045  0.32754  1.0000
  C   C9        1.0  0.02161  0.57776  0.32316  1.0000
  C   C10       1.0  0.97381  0.57803  0.32287  1.0000
  C   C11       1.0  0.97408  0.62591  0.32012  1.0000
  C   C12       1.0  0.02167  0.67246  0.32597  1.0000
  C   C13       1.0  0.06920  0.67331  0.33014  1.0000
  C   C14       1.0  0.06944  0.62577  0.32411  1.0000
  C   C15       1.0  0.92723  0.52992  0.31999  1.0000
  H   H2        1.0  0.02174  0.70691  0.32763  1.0000
  C   C16       1.0  0.11602  0.62417  0.32451  1.0000
  H   H3        1.0  0.89193  0.52745  0.31625  1.0000
  H   H4        1.0  0.89180  0.45040  0.32687  1.0000
  H   H5        1.0  0.15138  0.65696  0.32712  1.0000
  H   H6        1.0  0.15126  0.57993  0.31638  1.0000
  C   C17       1.0  0.11416  0.47773  0.30928  1.0000
  C   C18       1.0  0.92901  0.38587  0.34551  1.0000
  C   C19       1.0  0.92907  0.62966  0.30900  1.0000
  C   C20       1.0  0.11415  0.72148  0.34580  1.0000
  O   O1        1.0  0.11058  0.43820  0.25927  1.0000
  O   O2        1.0  0.93297  0.35188  0.40024  1.0000
  O   O3        1.0  0.11019  0.75531  0.40094  1.0000
  N   N1        1.0  0.21673  0.50553  0.26507  1.0000
  C   C21       1.0  0.26161  0.50795  0.24149  1.0000
  C   C22       1.0  0.29245  0.50471  0.30854  1.0000
  H   H7        1.0  0.26946  0.50647  0.17633  1.0000
  N   N2        1.0  0.33474  0.50069  0.29006  1.0000
  H   H8        1.0  0.35028  0.51107  0.23154  1.0000
  N   N3        1.0  0.56952  0.79679  0.26512  1.0000
  C   C23       1.0  0.56706  0.83922  0.24151  1.0000
  C   C24       1.0  0.57029  0.87330  0.30854  1.0000
  H   H9        1.0  0.56853  0.84854  0.17634  1.0000
  N   N4        1.0  0.57428  0.91961  0.29007  1.0000
  H   H10       1.0  0.56400  0.92482  0.23149  1.0000
  N   N5        1.0  0.27811  0.85871  0.26507  1.0000
  C   C25       1.0  0.23556  0.81391  0.24155  1.0000
  C   C26       1.0  0.20162  0.78293  0.30863  1.0000
  H   H11       1.0  0.22636  0.80588  0.17637  1.0000
  N   N6        1.0  0.15536  0.74054  0.29020  1.0000
  H   H12       1.0  0.15019  0.72506  0.23163  1.0000
  N   N7        1.0  0.82649  0.60205  0.26488  1.0000
  C   C27       1.0  0.78168  0.59980  0.24141  1.0000
  C   C28       1.0  0.75071  0.60275  0.30852  1.0000
  H   H13       1.0  0.77364  0.60097  0.17624  1.0000
  N   N8        1.0  0.70831  0.60660  0.29014  1.0000
  H   H14       1.0  0.69283  0.59634  0.23155  1.0000
  N   N9        1.0  0.47325  0.31024  0.26505  1.0000
  C   C29       1.0  0.47555  0.26770  0.24161  1.0000
  C   C30       1.0  0.47261  0.23379  0.30875  1.0000
  H   H15       1.0  0.47442  0.25850  0.17645  1.0000
  N   N10       1.0  0.46881  0.18756  0.29039  1.0000
  H   H16       1.0  0.47904  0.18233  0.23180  1.0000
  N   N11       1.0  0.76501  0.24862  0.26503  1.0000
  C   C31       1.0  0.80749  0.29348  0.24145  1.0000
  C   C32       1.0  0.84150  0.32442  0.30849  1.0000
  H   H17       1.0  0.81669  0.30137  0.17626  1.0000
  N   N12       1.0  0.88775  0.36680  0.29000  1.0000
  H   H18       1.0  0.89288  0.38230  0.23144  1.0000
  O   O4        1.0  0.93260  0.66930  0.25934  1.0000
  C   C33       1.0  0.54558  0.57768  0.32324  1.0000
  C   C34       1.0  0.59359  0.57786  0.32406  1.0000
  C   C35       1.0  0.64113  0.62563  0.33008  1.0000
  C   C36       1.0  0.64029  0.67233  0.32611  1.0000
  C   C37       1.0  0.59373  0.67337  0.32039  1.0000
  C   C38       1.0  0.54586  0.62576  0.32313  1.0000
  C   C39       1.0  0.59198  0.52967  0.32442  1.0000
  C   C40       1.0  0.49774  0.62422  0.32030  1.0000
  H   H19       1.0  0.67474  0.70671  0.32778  1.0000
  C   C41       1.0  0.49741  0.52956  0.32317  1.0000
  C   C42       1.0  0.49713  0.48149  0.32286  1.0000
  C   C43       1.0  0.44926  0.43387  0.32004  1.0000
  C   C44       1.0  0.40270  0.43491  0.32581  1.0000
  C   C45       1.0  0.40185  0.48160  0.32993  1.0000
  C   C46       1.0  0.44940  0.52938  0.32406  1.0000
  C   C47       1.0  0.54525  0.48301  0.32006  1.0000
  H   H20       1.0  0.36825  0.40052  0.32742  1.0000
  C   C48       1.0  0.45101  0.57756  0.32456  1.0000
  H   H21       1.0  0.54772  0.45020  0.31621  1.0000
  H   H22       1.0  0.62475  0.52709  0.32699  1.0000
  H   H23       1.0  0.41823  0.58015  0.32715  1.0000
  H   H24       1.0  0.49525  0.65703  0.31650  1.0000
  C   C49       1.0  0.59753  0.72216  0.30949  1.0000
  C   C50       1.0  0.68933  0.62889  0.34565  1.0000
  C   C51       1.0  0.44551  0.38511  0.30905  1.0000
  C   C52       1.0  0.35364  0.47830  0.34551  1.0000
  O   O5        1.0  0.63704  0.75823  0.25960  1.0000
  O   O6        1.0  0.72344  0.66681  0.40031  1.0000
  O   O7        1.0  0.40589  0.34897  0.25942  1.0000
  O   O8        1.0  0.31962  0.44047  0.40039  1.0000
  C   C53       1.0  0.49760  0.05368  0.32327  1.0000
  C   C54       1.0  0.49748  0.10155  0.32419  1.0000
  C   C55       1.0  0.44972  0.10135  0.33026  1.0000
  C   C56       1.0  0.40301  0.05385  0.32613  1.0000
  C   C57       1.0  0.40192  0.00623  0.32025  1.0000
  C   C58       1.0  0.44950  0.00592  0.32306  1.0000
  C   C59       1.0  0.54568  0.14809  0.32458  1.0000
  C   C60       1.0  0.45097  0.95930  0.32029  1.0000
  H   H25       1.0  0.36865  0.05395  0.32782  1.0000
  C   C61       1.0  0.54570  0.05359  0.32322  1.0000
  C   C62       1.0  0.59380  0.10136  0.32301  1.0000
  C   C63       1.0  0.64139  0.10105  0.32020  1.0000
  C   C64       1.0  0.64029  0.05342  0.32592  1.0000
  C   C65       1.0  0.59358  0.00591  0.32997  1.0000
  C   C66       1.0  0.54582  0.00572  0.32406  1.0000
  C   C67       1.0  0.59232  0.14797  0.32020  1.0000
  H   H26       1.0  0.67466  0.05332  0.32751  1.0000
  C   C68       1.0  0.49761  0.95919  0.32460  1.0000
  H   H27       1.0  0.62516  0.18325  0.31640  1.0000
  H   H28       1.0  0.54830  0.18347  0.32720  1.0000
  H   H29       1.0  0.49497  0.92380  0.32727  1.0000
  H   H30       1.0  0.41812  0.92402  0.31662  1.0000
  C   C69       1.0  0.35315  0.96123  0.30920  1.0000
  C   C70       1.0  0.44650  0.14631  0.34592  1.0000
  C   C71       1.0  0.69018  0.14603  0.30925  1.0000
  C   C72       1.0  0.59680  0.96094  0.34541  1.0000
  O   O9        1.0  0.31707  0.96487  0.25965  1.0000
  O   O10       1.0  0.40880  0.14245  0.40115  1.0000
  O   O11       1.0  0.72631  0.14252  0.25966  1.0000
  O   O12       1.0  0.63479  0.96469  0.39984  1.0000
  C   C73       1.0  0.20155  0.50494  0.35012  1.0000
  N   N13       1.0  0.27836  0.50602  0.39352  1.0000
  C   C74       1.0  0.23599  0.50877  0.41801  1.0000
  C   C75       1.0  0.22547  0.50805  0.50722  1.0000
  O   O13       1.0  0.26121  0.53670  0.55572  1.0000
  O   O14       1.0  0.19173  0.46820  0.54353  1.0000
  H   H31       1.0  0.16582  0.44169  0.51597  1.0000
  N   N14       1.0  0.15524  0.50197  0.36494  1.0000
  H   H32       1.0  0.14961  0.51416  0.42131  1.0000
  C   C76       1.0  0.57011  0.78222  0.35018  1.0000
  N   N15       1.0  0.56898  0.85792  0.39353  1.0000
  C   C77       1.0  0.56624  0.81282  0.41805  1.0000
  C   C78       1.0  0.56701  0.80303  0.50732  1.0000
  O   O15       1.0  0.53775  0.80952  0.55525  1.0000
  O   O16       1.0  0.60710  0.80960  0.54332  1.0000
  H   H33       1.0  0.63368  0.81041  0.51566  1.0000
  N   N16       1.0  0.57315  0.73891  0.36505  1.0000
  H   H34       1.0  0.56097  0.72110  0.42143  1.0000
  C   C79       1.0  0.29276  0.87385  0.35012  1.0000
  N   N17       1.0  0.21707  0.79701  0.39358  1.0000
  C   C80       1.0  0.26217  0.83941  0.41803  1.0000
  C   C81       1.0  0.27204  0.84995  0.50729  1.0000
  O   O17       1.0  0.26554  0.81419  0.55519  1.0000
  O   O18       1.0  0.26564  0.88354  0.54337  1.0000
  H   H35       1.0  0.26486  0.90935  0.51575  1.0000
  N   N18       1.0  0.33611  0.92017  0.36497  1.0000
  H   H36       1.0  0.35400  0.92570  0.42125  1.0000
  C   C82       1.0  0.84166  0.60254  0.34991  1.0000
  N   N19       1.0  0.76481  0.60138  0.39346  1.0000
  C   C83       1.0  0.80725  0.59873  0.41784  1.0000
  C   C84       1.0  0.81776  0.59927  0.50709  1.0000
  O   O19       1.0  0.78197  0.56999  0.55492  1.0000
  O   O20       1.0  0.85138  0.63921  0.54329  1.0000
  H   H37       1.0  0.87721  0.66582  0.51575  1.0000
  N   N20       1.0  0.88799  0.60553  0.36471  1.0000
  H   H38       1.0  0.89354  0.59318  0.42099  1.0000
  C   C85       1.0  0.47270  0.32489  0.35007  1.0000
  N   N21       1.0  0.47393  0.24926  0.39367  1.0000
  C   C86       1.0  0.47653  0.29433  0.41805  1.0000
  C   C87       1.0  0.47591  0.30437  0.50721  1.0000
  O   O21       1.0  0.50499  0.29743  0.55491  1.0000
  O   O22       1.0  0.43606  0.29782  0.54391  1.0000
  H   H39       1.0  0.40941  0.29709  0.51663  1.0000
  N   N22       1.0  0.46969  0.36823  0.36479  1.0000
  H   H40       1.0  0.48195  0.38612  0.42110  1.0000
  C   C88       1.0  0.75043  0.23345  0.35008  1.0000
  N   N23       1.0  0.82611  0.31034  0.39347  1.0000
  C   C89       1.0  0.78106  0.26789  0.41796  1.0000
  C   C90       1.0  0.77112  0.25742  0.50716  1.0000
  O   O23       1.0  0.77823  0.29321  0.55555  1.0000
  O   O24       1.0  0.77709  0.22364  0.54366  1.0000
  H   H41       1.0  0.77769  0.19770  0.51622  1.0000
  N   N24       1.0  0.70706  0.18713  0.36490  1.0000
  H   H42       1.0  0.68924  0.18156  0.42125  1.0000
