data_image0
_chemical_formula_structural       C5HC3HC2HC6HC5H4C22H14C22H14C8HC6HCH4C24H15C24H15
_chemical_formula_sum              "C128 H72"
_cell_length_a       26.0452
_cell_length_b       29.8783
_cell_length_c       14.8667
_cell_angle_alpha    90.001
_cell_angle_beta     89.9994
_cell_angle_gamma    90.2366

_space_group_name_H-M_alt    "P 1"
_space_group_IT_number       1

loop_
  _space_group_symop_operation_xyz
  'x, y, z'

loop_
  _atom_site_type_symbol
  _atom_site_label
  _atom_site_symmetry_multiplicity
  _atom_site_fract_x
  _atom_site_fract_y
  _atom_site_fract_z
  _atom_site_occupancy
  C   C1        1.0  0.91554  0.04625  0.34786  1.0000
  C   C2        1.0  0.97037  0.04544  0.35342  1.0000
  C   C3        1.0  0.99921  0.08410  0.37541  1.0000
  C   C4        1.0  0.13618  0.04659  0.34638  1.0000
  C   C5        1.0  0.08136  0.04558  0.35285  1.0000
  H   H1        1.0  0.20015  0.00450  0.33360  1.0000
  C   C6        1.0  0.05283  0.08417  0.37511  1.0000
  C   C7        1.0  0.21556  0.09162  0.37545  1.0000
  C   C8        1.0  0.16599  0.08692  0.33697  1.0000
  H   H2        1.0  0.23065  0.06645  0.41371  1.0000
  C   C9        1.0  0.88587  0.08649  0.34039  1.0000
  C   C10       1.0  0.83706  0.09094  0.38163  1.0000
  H   H3        1.0  0.82253  0.06558  0.42037  1.0000
  C   C11       1.0  0.16148  0.00455  0.34550  1.0000
  C   C12       1.0  0.99806  0.50433  0.35038  1.0000
  C   C13       1.0  0.97009  0.46316  0.35283  1.0000
  C   C14       1.0  0.91527  0.46213  0.34644  1.0000
  C   C15       1.0  0.88997  0.50417  0.34556  1.0000
  C   C16       1.0  0.99862  0.42458  0.37519  1.0000
  H   H4        1.0  0.85129  0.00425  0.33368  1.0000
  C   C17       1.0  0.05339  0.50440  0.35037  1.0000
  C   C18       1.0  0.08108  0.46329  0.35339  1.0000
  C   C19       1.0  0.13591  0.46248  0.34784  1.0000
  C   C20       1.0  0.16148  0.50455  0.34550  1.0000
  C   C21       1.0  0.05224  0.42462  0.37536  1.0000
  H   H5        1.0  0.06976  0.39580  0.39547  1.0000
  H   H6        1.0  0.98084  0.39571  0.39506  1.0000
  H   H7        1.0  0.07061  0.11304  0.39497  1.0000
  H   H8        1.0  0.98169  0.11295  0.39540  1.0000
  C   C22       1.0  0.25066  0.21285  0.32865  1.0000
  C   C23       1.0  0.30491  0.21459  0.33627  1.0000
  C   C24       1.0  0.33299  0.25510  0.34256  1.0000
  C   C25       1.0  0.30454  0.29535  0.34422  1.0000
  C   C26       1.0  0.25039  0.29683  0.33387  1.0000
  C   C27       1.0  0.22502  0.25478  0.32399  1.0000
  C   C28       1.0  0.38830  0.25528  0.34558  1.0000
  C   C29       1.0  0.41600  0.22147  0.39157  1.0000
  C   C30       1.0  0.47005  0.22078  0.39192  1.0000
  C   C31       1.0  0.49848  0.25467  0.34808  1.0000
  C   C32       1.0  0.47154  0.28890  0.30311  1.0000
  C   C33       1.0  0.41750  0.28880  0.30099  1.0000
  C   C34       1.0  0.22374  0.17089  0.32779  1.0000
  C   C35       1.0  0.24356  0.13206  0.37058  1.0000
  C   C36       1.0  0.14818  0.12459  0.28796  1.0000
  C   C37       1.0  0.17523  0.16554  0.28572  1.0000
  C   C38       1.0  0.22317  0.33849  0.33435  1.0000
  C   C39       1.0  0.17542  0.34372  0.28965  1.0000
  C   C40       1.0  0.14832  0.38445  0.29084  1.0000
  C   C41       1.0  0.16558  0.42224  0.34034  1.0000
  C   C42       1.0  0.21442  0.41781  0.38148  1.0000
  C   C43       1.0  0.24216  0.37739  0.37862  1.0000
  H   H9        1.0  0.27710  0.13357  0.40611  1.0000
  H   H10       1.0  0.11482  0.12257  0.25189  1.0000
  H   H11       1.0  0.15984  0.19093  0.24849  1.0000
  H   H12       1.0  0.16063  0.31842  0.25116  1.0000
  H   H13       1.0  0.11553  0.38633  0.25318  1.0000
  H   H14       1.0  0.27511  0.37614  0.41577  1.0000
  H   H15       1.0  0.22894  0.44315  0.42029  1.0000
  H   H16       1.0  0.39976  0.31325  0.26443  1.0000
  H   H17       1.0  0.49108  0.31349  0.26931  1.0000
  H   H18       1.0  0.48851  0.19575  0.42586  1.0000
  H   H19       1.0  0.39705  0.19696  0.42643  1.0000
  H   H20       1.0  0.32509  0.18547  0.33078  1.0000
  H   H21       1.0  0.18585  0.25450  0.32416  1.0000
  H   H22       1.0  0.32454  0.32468  0.34901  1.0000
  C   C44       1.0  0.80078  0.29588  0.32867  1.0000
  C   C45       1.0  0.74654  0.29413  0.33629  1.0000
  C   C46       1.0  0.71845  0.25362  0.34261  1.0000
  C   C47       1.0  0.74691  0.21338  0.34429  1.0000
  C   C48       1.0  0.80106  0.21189  0.33393  1.0000
  C   C49       1.0  0.82642  0.25394  0.32403  1.0000
  C   C50       1.0  0.66314  0.25345  0.34561  1.0000
  C   C51       1.0  0.63543  0.28729  0.39149  1.0000
  C   C52       1.0  0.58138  0.28799  0.39181  1.0000
  C   C53       1.0  0.55295  0.25406  0.34809  1.0000
  C   C54       1.0  0.57990  0.21979  0.30322  1.0000
  C   C55       1.0  0.63394  0.21989  0.30112  1.0000
  C   C56       1.0  0.82771  0.33783  0.32785  1.0000
  C   C57       1.0  0.80793  0.37665  0.37073  1.0000
  C   C58       1.0  0.83588  0.41711  0.37550  1.0000
  C   C59       1.0  0.88547  0.42181  0.33704  1.0000
  C   C60       1.0  0.90328  0.38413  0.28807  1.0000
  C   C61       1.0  0.87622  0.34318  0.28580  1.0000
  C   C62       1.0  0.82827  0.17023  0.33440  1.0000
  C   C63       1.0  0.87601  0.16500  0.28968  1.0000
  C   C64       1.0  0.90312  0.12427  0.29085  1.0000
  C   C65       1.0  0.80926  0.13134  0.37864  1.0000
  H   H23       1.0  0.82077  0.44230  0.41370  1.0000
  H   H24       1.0  0.77430  0.37518  0.40605  1.0000
  H   H25       1.0  0.93664  0.38615  0.25198  1.0000
  H   H26       1.0  0.89161  0.31780  0.24854  1.0000
  H   H27       1.0  0.89080  0.19030  0.25120  1.0000
  H   H28       1.0  0.93590  0.12239  0.25318  1.0000
  H   H29       1.0  0.77636  0.13260  0.41589  1.0000
  H   H30       1.0  0.65168  0.19541  0.26463  1.0000
  H   H31       1.0  0.56036  0.19517  0.26952  1.0000
  H   H32       1.0  0.56292  0.31304  0.42569  1.0000
  H   H33       1.0  0.65437  0.31183  0.42629  1.0000
  H   H34       1.0  0.72636  0.32325  0.33077  1.0000
  H   H35       1.0  0.86559  0.25422  0.32420  1.0000
  H   H36       1.0  0.72690  0.18405  0.34910  1.0000
  C   C66       1.0  0.99806  0.00433  0.35038  1.0000
  C   C67       1.0  0.97009  0.96316  0.35283  1.0000
  C   C68       1.0  0.91527  0.96213  0.34644  1.0000
  C   C69       1.0  0.88997  0.00418  0.34556  1.0000
  C   C70       1.0  0.91554  0.54625  0.34786  1.0000
  C   C71       1.0  0.97037  0.54544  0.35342  1.0000
  C   C72       1.0  0.99862  0.92458  0.37519  1.0000
  C   C73       1.0  0.99921  0.58411  0.37541  1.0000
  H   H37       1.0  0.85129  0.50425  0.33368  1.0000
  C   C74       1.0  0.05339  0.00440  0.35037  1.0000
  C   C75       1.0  0.08108  0.96330  0.35339  1.0000
  C   C76       1.0  0.13591  0.96248  0.34784  1.0000
  C   C77       1.0  0.13618  0.54659  0.34638  1.0000
  C   C78       1.0  0.08136  0.54558  0.35285  1.0000
  C   C79       1.0  0.05224  0.92463  0.37536  1.0000
  H   H38       1.0  0.20015  0.50450  0.33360  1.0000
  C   C80       1.0  0.05283  0.58417  0.37511  1.0000
  H   H39       1.0  0.06976  0.89580  0.39547  1.0000
  H   H40       1.0  0.98084  0.89571  0.39506  1.0000
  H   H41       1.0  0.07061  0.61304  0.39497  1.0000
  H   H42       1.0  0.98169  0.61295  0.39540  1.0000
  C   C81       1.0  0.25066  0.71285  0.32865  1.0000
  C   C82       1.0  0.30491  0.71459  0.33627  1.0000
  C   C83       1.0  0.33299  0.75510  0.34256  1.0000
  C   C84       1.0  0.30454  0.79535  0.34422  1.0000
  C   C85       1.0  0.25039  0.79683  0.33387  1.0000
  C   C86       1.0  0.22502  0.75478  0.32399  1.0000
  C   C87       1.0  0.38830  0.75528  0.34558  1.0000
  C   C88       1.0  0.41600  0.72147  0.39157  1.0000
  C   C89       1.0  0.47005  0.72078  0.39192  1.0000
  C   C90       1.0  0.49848  0.75467  0.34808  1.0000
  C   C91       1.0  0.47154  0.78890  0.30311  1.0000
  C   C92       1.0  0.41750  0.78880  0.30099  1.0000
  C   C93       1.0  0.22374  0.67089  0.32779  1.0000
  C   C94       1.0  0.24356  0.63206  0.37058  1.0000
  C   C95       1.0  0.21556  0.59162  0.37545  1.0000
  C   C96       1.0  0.16599  0.58692  0.33697  1.0000
  C   C97       1.0  0.14818  0.62459  0.28796  1.0000
  C   C98       1.0  0.17523  0.66554  0.28572  1.0000
  C   C99       1.0  0.22317  0.83850  0.33435  1.0000
  C   C100      1.0  0.17542  0.84372  0.28965  1.0000
  C   C101      1.0  0.14832  0.88445  0.29084  1.0000
  C   C102      1.0  0.16558  0.92224  0.34034  1.0000
  C   C103      1.0  0.21442  0.91781  0.38148  1.0000
  C   C104      1.0  0.24216  0.87738  0.37862  1.0000
  H   H43       1.0  0.23065  0.56644  0.41371  1.0000
  H   H44       1.0  0.27710  0.63357  0.40611  1.0000
  H   H45       1.0  0.11482  0.62257  0.25189  1.0000
  H   H46       1.0  0.15984  0.69093  0.24849  1.0000
  H   H47       1.0  0.16063  0.81842  0.25116  1.0000
  H   H48       1.0  0.11553  0.88633  0.25318  1.0000
  H   H49       1.0  0.27511  0.87614  0.41577  1.0000
  H   H50       1.0  0.22894  0.94315  0.42029  1.0000
  H   H51       1.0  0.39976  0.81325  0.26443  1.0000
  H   H52       1.0  0.49108  0.81349  0.26931  1.0000
  H   H53       1.0  0.48851  0.69575  0.42586  1.0000
  H   H54       1.0  0.39705  0.69695  0.42643  1.0000
  H   H55       1.0  0.32509  0.68547  0.33078  1.0000
  H   H56       1.0  0.18585  0.75450  0.32416  1.0000
  H   H57       1.0  0.32454  0.82468  0.34901  1.0000
  C   C105      1.0  0.80078  0.79588  0.32867  1.0000
  C   C106      1.0  0.74654  0.79413  0.33629  1.0000
  C   C107      1.0  0.71845  0.75362  0.34261  1.0000
  C   C108      1.0  0.74691  0.71338  0.34429  1.0000
  C   C109      1.0  0.80105  0.71189  0.33393  1.0000
  C   C110      1.0  0.82642  0.75394  0.32403  1.0000
  C   C111      1.0  0.66314  0.75345  0.34561  1.0000
  C   C112      1.0  0.63544  0.78729  0.39149  1.0000
  C   C113      1.0  0.58138  0.78799  0.39181  1.0000
  C   C114      1.0  0.55295  0.75406  0.34809  1.0000
  C   C115      1.0  0.57990  0.71979  0.30322  1.0000
  C   C116      1.0  0.63394  0.71989  0.30112  1.0000
  C   C117      1.0  0.82771  0.83783  0.32785  1.0000
  C   C118      1.0  0.80793  0.87665  0.37073  1.0000
  C   C119      1.0  0.83588  0.91711  0.37550  1.0000
  C   C120      1.0  0.88547  0.92181  0.33704  1.0000
  C   C121      1.0  0.90328  0.88413  0.28807  1.0000
  C   C122      1.0  0.87622  0.84318  0.28580  1.0000
  C   C123      1.0  0.82828  0.67023  0.33440  1.0000
  C   C124      1.0  0.87601  0.66500  0.28968  1.0000
  C   C125      1.0  0.90312  0.62427  0.29085  1.0000
  C   C126      1.0  0.88587  0.58649  0.34039  1.0000
  C   C127      1.0  0.83706  0.59094  0.38163  1.0000
  C   C128      1.0  0.80926  0.63134  0.37864  1.0000
  H   H58       1.0  0.82077  0.94230  0.41370  1.0000
  H   H59       1.0  0.77430  0.87518  0.40605  1.0000
  H   H60       1.0  0.93664  0.88615  0.25198  1.0000
  H   H61       1.0  0.89161  0.81780  0.24854  1.0000
  H   H62       1.0  0.89080  0.69030  0.25120  1.0000
  H   H63       1.0  0.93590  0.62239  0.25318  1.0000
  H   H64       1.0  0.77636  0.63260  0.41589  1.0000
  H   H65       1.0  0.82253  0.56558  0.42037  1.0000
  H   H66       1.0  0.65168  0.69541  0.26463  1.0000
  H   H67       1.0  0.56036  0.69517  0.26952  1.0000
  H   H68       1.0  0.56292  0.81304  0.42569  1.0000
  H   H69       1.0  0.65438  0.81183  0.42629  1.0000
  H   H70       1.0  0.72636  0.82325  0.33077  1.0000
  H   H71       1.0  0.86559  0.75422  0.32420  1.0000
  H   H72       1.0  0.72690  0.68405  0.34910  1.0000
