data_image0
_chemical_formula_structural       C4HC4HN2H4N2C4HC4HN2H4N2C4HC4HN2H4N2C3HCH3CHC3HCH3CHC3HCH3CHC3HCH3CHC3HCH3CHC3HCH3CHC2HC2HN2C2HC2HN2C2HC2HN2C3HCH3CHC3HCH3CHC3HCH3CHC3HCH3CHC3HCH3CHC3HCH3CH
_chemical_formula_sum              "C96 H84 N18"
_cell_length_a       31.0667
_cell_length_b       31.0667
_cell_length_c       14.9868
_cell_angle_alpha    90
_cell_angle_beta     90
_cell_angle_gamma    120

_space_group_name_H-M_alt    "P 1"
_space_group_IT_number       1

loop_
  _space_group_symop_operation_xyz
  'x, y, z'

loop_
  _atom_site_type_symbol
  _atom_site_label
  _atom_site_symmetry_multiplicity
  _atom_site_fract_x
  _atom_site_fract_y
  _atom_site_fract_z
  _atom_site_occupancy
  C   C1        1.0  0.02744  0.51421  0.26216  1.0000
  C   C2        1.0  0.12423  0.56594  0.33665  1.0000
  C   C3        1.0  0.10262  0.59355  0.30436  1.0000
  C   C4        1.0  0.05671  0.56765  0.25705  1.0000
  H   H1        1.0  0.15988  0.58406  0.36041  1.0000
  C   C5        1.0  0.97380  0.48689  0.26159  1.0000
  C   C6        1.0  0.94452  0.43346  0.25638  1.0000
  C   C7        1.0  0.89832  0.40757  0.30281  1.0000
  C   C8        1.0  0.87655  0.43522  0.33411  1.0000
  H   H2        1.0  0.84088  0.41723  0.35778  1.0000
  N   N1        1.0  0.04211  0.59401  0.20485  1.0000
  N   N2        1.0  0.95932  0.40708  0.20476  1.0000
  H   H3        1.0  0.01530  0.57695  0.16198  1.0000
  H   H4        1.0  0.06301  0.62970  0.19673  1.0000
  H   H5        1.0  0.93880  0.37132  0.19711  1.0000
  H   H6        1.0  0.98659  0.42403  0.16268  1.0000
  N   N3        1.0  0.87364  0.35702  0.31265  1.0000
  N   N4        1.0  0.12729  0.64411  0.31400  1.0000
  C   C9        1.0  0.48703  0.51320  0.26210  1.0000
  C   C10       1.0  0.43544  0.55851  0.33609  1.0000
  C   C11       1.0  0.40775  0.50920  0.30423  1.0000
  C   C12       1.0  0.43359  0.48900  0.25727  1.0000
  H   H7        1.0  0.41740  0.57615  0.35970  1.0000
  C   C13       1.0  0.51442  0.48693  0.26227  1.0000
  C   C14       1.0  0.56785  0.51111  0.25691  1.0000
  C   C15       1.0  0.59381  0.49102  0.30379  1.0000
  C   C16       1.0  0.56621  0.44181  0.33616  1.0000
  H   H8        1.0  0.58427  0.42418  0.35970  1.0000
  N   N5        1.0  0.40716  0.44794  0.20539  1.0000
  N   N6        1.0  0.59413  0.55207  0.20468  1.0000
  H   H9        1.0  0.42404  0.43768  0.16306  1.0000
  H   H10       1.0  0.37138  0.43266  0.19807  1.0000
  H   H11       1.0  0.62986  0.56710  0.19678  1.0000
  H   H12       1.0  0.57711  0.56209  0.16223  1.0000
  N   N7        1.0  0.64440  0.51687  0.31309  1.0000
  N   N8        1.0  0.35717  0.48340  0.31394  1.0000
  C   C17       1.0  0.48755  0.97325  0.26144  1.0000
  C   C18       1.0  0.44285  0.87635  0.33525  1.0000
  C   C19       1.0  0.49209  0.89820  0.30300  1.0000
  C   C20       1.0  0.51199  0.94425  0.25614  1.0000
  H   H13       1.0  0.42541  0.84072  0.35908  1.0000
  C   C21       1.0  0.51356  0.02688  0.26174  1.0000
  C   C22       1.0  0.48907  0.05586  0.25657  1.0000
  C   C23       1.0  0.50892  0.10183  0.30363  1.0000
  C   C24       1.0  0.55824  0.12377  0.33557  1.0000
  H   H14       1.0  0.57558  0.15940  0.35942  1.0000
  N   N9        1.0  0.55309  0.95920  0.20421  1.0000
  N   N10       1.0  0.44796  0.04092  0.20465  1.0000
  H   H15       1.0  0.56289  0.98622  0.16175  1.0000
  H   H16       1.0  0.56831  0.93870  0.19615  1.0000
  H   H17       1.0  0.43298  0.06163  0.19641  1.0000
  H   H18       1.0  0.43836  0.01409  0.16188  1.0000
  N   N11       1.0  0.48277  0.12623  0.31339  1.0000
  N   N12       1.0  0.51819  0.87372  0.31247  1.0000
  C   C25       1.0  0.17815  0.45428  0.33714  1.0000
  C   C26       1.0  0.19900  0.43190  0.28223  1.0000
  C   C27       1.0  0.24875  0.44351  0.29774  1.0000
  H   H19       1.0  0.26495  0.43057  0.25393  1.0000
  C   C28       1.0  0.17211  0.40101  0.20326  1.0000
  H   H20       1.0  0.13695  0.36924  0.22457  1.0000
  H   H21       1.0  0.19309  0.38657  0.16832  1.0000
  H   H22       1.0  0.16461  0.42310  0.15578  1.0000
  C   C29       1.0  0.13302  0.45330  0.31744  1.0000
  H   H23       1.0  0.10944  0.43028  0.26939  1.0000
  C   C30       1.0  0.54756  0.72402  0.33542  1.0000
  C   C31       1.0  0.56943  0.76695  0.27973  1.0000
  C   C32       1.0  0.55802  0.80520  0.29551  1.0000
  H   H24       1.0  0.57047  0.83405  0.25114  1.0000
  C   C33       1.0  0.59951  0.77045  0.19980  1.0000
  H   H25       1.0  0.63146  0.76714  0.22013  1.0000
  H   H26       1.0  0.61362  0.80568  0.16432  1.0000
  H   H27       1.0  0.57692  0.74060  0.15309  1.0000
  C   C34       1.0  0.54823  0.67972  0.31574  1.0000
  H   H28       1.0  0.57087  0.67890  0.26719  1.0000
  C   C35       1.0  0.27724  0.82290  0.33695  1.0000
  C   C36       1.0  0.23419  0.80200  0.28156  1.0000
  C   C37       1.0  0.19592  0.75236  0.29731  1.0000
  H   H29       1.0  0.16693  0.73607  0.25320  1.0000
  C   C38       1.0  0.23059  0.82870  0.20192  1.0000
  H   H30       1.0  0.23406  0.86399  0.22252  1.0000
  H   H31       1.0  0.19527  0.80770  0.16668  1.0000
  H   H32       1.0  0.26030  0.83592  0.15491  1.0000
  C   C39       1.0  0.32146  0.86787  0.31717  1.0000
  H   H33       1.0  0.32261  0.89144  0.26852  1.0000
  C   C40       1.0  0.82450  0.54858  0.33601  1.0000
  C   C41       1.0  0.80319  0.57078  0.28152  1.0000
  C   C42       1.0  0.75295  0.55769  0.29639  1.0000
  H   H34       1.0  0.73640  0.57026  0.25247  1.0000
  C   C43       1.0  0.82793  0.60283  0.20246  1.0000
  H   H35       1.0  0.86773  0.61687  0.19951  1.0000
  H   H36       1.0  0.82310  0.63531  0.20394  1.0000
  H   H37       1.0  0.81106  0.58195  0.14144  1.0000
  C   C44       1.0  0.86930  0.54886  0.31620  1.0000
  H   H38       1.0  0.89299  0.57074  0.26749  1.0000
  C   C45       1.0  0.45386  0.27613  0.33634  1.0000
  C   C46       1.0  0.43163  0.23306  0.28103  1.0000
  C   C47       1.0  0.44294  0.19473  0.29683  1.0000
  H   H39       1.0  0.43025  0.16576  0.25269  1.0000
  C   C48       1.0  0.40145  0.22952  0.20125  1.0000
  H   H40       1.0  0.36965  0.23307  0.22171  1.0000
  H   H41       1.0  0.38709  0.19419  0.16604  1.0000
  H   H42       1.0  0.42403  0.25921  0.15428  1.0000
  C   C49       1.0  0.45349  0.32052  0.31627  1.0000
  H   H43       1.0  0.43064  0.32139  0.26816  1.0000
  C   C50       1.0  0.72397  0.17795  0.33621  1.0000
  C   C51       1.0  0.76711  0.19886  0.28106  1.0000
  C   C52       1.0  0.80524  0.24861  0.29655  1.0000
  H   H44       1.0  0.83426  0.26488  0.25251  1.0000
  C   C53       1.0  0.77100  0.17201  0.20193  1.0000
  H   H45       1.0  0.76768  0.13686  0.22309  1.0000
  H   H46       1.0  0.80636  0.19302  0.16683  1.0000
  H   H47       1.0  0.74133  0.16449  0.15464  1.0000
  C   C54       1.0  0.67980  0.13284  0.31656  1.0000
  H   H48       1.0  0.67921  0.10927  0.26846  1.0000
  C   C55       1.0  0.05378  0.48932  0.28697  1.0000
  C   C56       1.0  0.10253  0.51502  0.31995  1.0000
  H   H49       1.0  0.03667  0.45166  0.29217  1.0000
  C   C57       1.0  0.89851  0.48621  0.31801  1.0000
  C   C58       1.0  0.94742  0.51185  0.28576  1.0000
  H   H50       1.0  0.96470  0.54948  0.29182  1.0000
  N   N13       1.0  0.86951  0.50632  0.33401  1.0000
  N   N14       1.0  0.13187  0.49529  0.33553  1.0000
  C   C59       1.0  0.51199  0.56454  0.28619  1.0000
  C   C60       1.0  0.48634  0.58764  0.31917  1.0000
  H   H51       1.0  0.54964  0.58503  0.29168  1.0000
  C   C61       1.0  0.51528  0.41263  0.31953  1.0000
  C   C62       1.0  0.48954  0.43562  0.28654  1.0000
  H   H52       1.0  0.45190  0.41513  0.29222  1.0000
  N   N15       1.0  0.49550  0.36353  0.33497  1.0000
  N   N16       1.0  0.50619  0.63675  0.33452  1.0000
  C   C63       1.0  0.43629  0.94667  0.28604  1.0000
  C   C64       1.0  0.41347  0.89792  0.31899  1.0000
  H   H53       1.0  0.41571  0.96371  0.29202  1.0000
  C   C65       1.0  0.58765  0.10227  0.31905  1.0000
  C   C66       1.0  0.56482  0.05349  0.28630  1.0000
  H   H54       1.0  0.58552  0.03654  0.29142  1.0000
  N   N17       1.0  0.63670  0.13175  0.33471  1.0000
  N   N18       1.0  0.36445  0.86863  0.33515  1.0000
  C   C67       1.0  0.27777  0.47495  0.36834  1.0000
  C   C68       1.0  0.25451  0.49186  0.43016  1.0000
  C   C69       1.0  0.20578  0.48184  0.41235  1.0000
  H   H55       1.0  0.19018  0.49598  0.45505  1.0000
  C   C70       1.0  0.27997  0.52211  0.51100  1.0000
  H   H56       1.0  0.29380  0.50251  0.55184  1.0000
  H   H57       1.0  0.25558  0.52928  0.55322  1.0000
  H   H58       1.0  0.31107  0.55807  0.49110  1.0000
  C   C71       1.0  0.32943  0.49253  0.37297  1.0000
  H   H59       1.0  0.34863  0.51649  0.42338  1.0000
  C   C72       1.0  0.52720  0.80313  0.36695  1.0000
  C   C73       1.0  0.51091  0.76333  0.42942  1.0000
  C   C74       1.0  0.52076  0.72452  0.41145  1.0000
  H   H60       1.0  0.50699  0.69499  0.45461  1.0000
  C   C75       1.0  0.48147  0.75902  0.51119  1.0000
  H   H61       1.0  0.50141  0.79274  0.55118  1.0000
  H   H62       1.0  0.47485  0.72778  0.55385  1.0000
  H   H63       1.0  0.44527  0.75391  0.49240  1.0000
  C   C76       1.0  0.50949  0.83709  0.37176  1.0000
  H   H64       1.0  0.48576  0.83244  0.42255  1.0000
  C   C77       1.0  0.19803  0.72353  0.36856  1.0000
  C   C78       1.0  0.23799  0.74690  0.43079  1.0000
  C   C79       1.0  0.27684  0.79553  0.41278  1.0000
  H   H65       1.0  0.30646  0.81122  0.45575  1.0000
  C   C80       1.0  0.24237  0.72165  0.51231  1.0000
  H   H66       1.0  0.20876  0.70798  0.55261  1.0000
  H   H67       1.0  0.27376  0.74616  0.55478  1.0000
  H   H68       1.0  0.24727  0.69047  0.49323  1.0000
  C   C81       1.0  0.16392  0.67189  0.37338  1.0000
  H   H69       1.0  0.16852  0.65274  0.42411  1.0000
  C   C82       1.0  0.72422  0.52617  0.36707  1.0000
  C   C83       1.0  0.74811  0.51025  0.42935  1.0000
  C   C84       1.0  0.79713  0.52117  0.41165  1.0000
  H   H70       1.0  0.81305  0.50746  0.45459  1.0000
  C   C85       1.0  0.72301  0.48007  0.51046  1.0000
  H   H71       1.0  0.70861  0.49931  0.55087  1.0000
  H   H72       1.0  0.74782  0.47367  0.55299  1.0000
  H   H73       1.0  0.69237  0.44377  0.49087  1.0000
  C   C86       1.0  0.67243  0.50789  0.37169  1.0000
  H   H74       1.0  0.65347  0.48384  0.42213  1.0000
  C   C87       1.0  0.47386  0.19683  0.36811  1.0000
  C   C88       1.0  0.49041  0.23676  0.43037  1.0000
  C   C89       1.0  0.48079  0.27570  0.41222  1.0000
  H   H75       1.0  0.49478  0.30534  0.45514  1.0000
  C   C90       1.0  0.51993  0.24107  0.51202  1.0000
  H   H76       1.0  0.49995  0.20742  0.55218  1.0000
  H   H77       1.0  0.52673  0.27241  0.55456  1.0000
  H   H78       1.0  0.55605  0.24601  0.49311  1.0000
  C   C91       1.0  0.49147  0.16278  0.37287  1.0000
  H   H79       1.0  0.51523  0.16741  0.42357  1.0000
  C   C92       1.0  0.80282  0.27761  0.36720  1.0000
  C   C93       1.0  0.76278  0.25429  0.42925  1.0000
  C   C94       1.0  0.72411  0.20552  0.41156  1.0000
  H   H80       1.0  0.69442  0.18988  0.45439  1.0000
  C   C95       1.0  0.75808  0.27971  0.51023  1.0000
  H   H81       1.0  0.79163  0.29368  0.55078  1.0000
  H   H82       1.0  0.72667  0.25524  0.55269  1.0000
  H   H83       1.0  0.75302  0.31071  0.49050  1.0000
  C   C96       1.0  0.83673  0.32930  0.37161  1.0000
  H   H84       1.0  0.83189  0.34852  0.42189  1.0000
