data_image0
_chemical_formula_structural       C3H2C2H2C3H2C2H2C6H2C2H2C6H4C6H4C2H2C3HC6H3C2H2C4H2C2H2C4H2C4H2C6H4C6H4C2H2C3HC6H3C2H2C4H2C2H2C4H2C4H2C6H4C6H4C6H4C6H3C6H3C2H2C4H2C2H2C4H2C2H2C4H2C6H4C6H4C6H4C6H3C6H3C2H2C4H2C2H2C4H2C2H2C4H2
_chemical_formula_sum              "C192 H120"
_cell_length_a       44.8017
_cell_length_b       44.8017
_cell_length_c       14.8916
_cell_angle_alpha    90
_cell_angle_beta     90
_cell_angle_gamma    120

_space_group_name_H-M_alt    "P 1"
_space_group_IT_number       1

loop_
  _space_group_symop_operation_xyz
  'x, y, z'

loop_
  _atom_site_type_symbol
  _atom_site_label
  _atom_site_symmetry_multiplicity
  _atom_site_fract_x
  _atom_site_fract_y
  _atom_site_fract_z
  _atom_site_occupancy
  C   C1        1.0  0.08049  0.29116  0.25931  1.0000
  C   C2        1.0  0.04418  0.27300  0.25982  1.0000
  C   C3        1.0  0.02435  0.26308  0.34057  1.0000
  H   H1        1.0  0.09326  0.29754  0.19912  1.0000
  H   H2        1.0  0.03288  0.26735  0.19824  1.0000
  C   C4        1.0  0.04424  0.27303  0.42121  1.0000
  C   C5        1.0  0.08054  0.29118  0.42155  1.0000
  H   H3        1.0  0.03298  0.26739  0.48285  1.0000
  H   H4        1.0  0.09336  0.29759  0.48169  1.0000
  C   C6        1.0  0.08049  0.79116  0.25931  1.0000
  C   C7        1.0  0.04418  0.77300  0.25982  1.0000
  C   C8        1.0  0.02435  0.76309  0.34057  1.0000
  H   H5        1.0  0.09326  0.79755  0.19912  1.0000
  H   H6        1.0  0.03288  0.76735  0.19824  1.0000
  C   C9        1.0  0.04424  0.77303  0.42121  1.0000
  C   C10       1.0  0.08054  0.79118  0.42155  1.0000
  H   H7        1.0  0.03298  0.76739  0.48285  1.0000
  H   H8        1.0  0.09336  0.79759  0.48169  1.0000
  C   C11       1.0  0.09909  0.30046  0.34039  1.0000
  C   C12       1.0  0.13558  0.31870  0.34030  1.0000
  C   C13       1.0  0.09909  0.80046  0.34039  1.0000
  C   C14       1.0  0.13558  0.81870  0.34030  1.0000
  C   C15       1.0  0.15399  0.35512  0.34031  1.0000
  C   C16       1.0  0.15398  0.30068  0.34031  1.0000
  H   H9        1.0  0.14076  0.27426  0.34034  1.0000
  H   H10       1.0  0.14079  0.36833  0.34034  1.0000
  C   C17       1.0  0.15399  0.85512  0.34031  1.0000
  C   C18       1.0  0.15398  0.80068  0.34031  1.0000
  H   H11       1.0  0.14076  0.77426  0.34034  1.0000
  H   H12       1.0  0.14079  0.86833  0.34034  1.0000
  C   C19       1.0  0.20863  0.30044  0.34039  1.0000
  C   C20       1.0  0.21793  0.29114  0.25931  1.0000
  C   C21       1.0  0.23609  0.27299  0.25982  1.0000
  C   C22       1.0  0.24601  0.26308  0.34057  1.0000
  C   C23       1.0  0.27486  0.23426  0.26001  1.0000
  C   C24       1.0  0.29301  0.21611  0.25968  1.0000
  H   H13       1.0  0.26922  0.23989  0.19837  1.0000
  H   H14       1.0  0.29942  0.20970  0.19954  1.0000
  H   H15       1.0  0.21155  0.29752  0.19912  1.0000
  H   H16       1.0  0.24174  0.26734  0.19824  1.0000
  C   C25       1.0  0.20866  0.41001  0.34039  1.0000
  C   C26       1.0  0.21796  0.42861  0.25931  1.0000
  C   C27       1.0  0.23611  0.46491  0.25982  1.0000
  C   C28       1.0  0.24602  0.48475  0.34057  1.0000
  C   C29       1.0  0.27484  0.04242  0.26001  1.0000
  C   C30       1.0  0.29298  0.07872  0.25968  1.0000
  H   H17       1.0  0.26921  0.03116  0.19837  1.0000
  H   H18       1.0  0.29939  0.09154  0.19954  1.0000
  H   H19       1.0  0.21158  0.41584  0.19912  1.0000
  H   H20       1.0  0.24176  0.47622  0.19824  1.0000
  C   C31       1.0  0.46668  0.23425  0.26001  1.0000
  C   C32       1.0  0.43037  0.21609  0.25968  1.0000
  H   H21       1.0  0.47794  0.23988  0.19837  1.0000
  H   H22       1.0  0.41756  0.20969  0.19954  1.0000
  C   C33       1.0  0.19041  0.37352  0.34030  1.0000
  C   C34       1.0  0.20842  0.35511  0.34031  1.0000
  C   C35       1.0  0.19040  0.31869  0.34030  1.0000
  H   H23       1.0  0.23484  0.36831  0.34034  1.0000
  C   C36       1.0  0.37534  0.18858  0.34092  1.0000
  C   C37       1.0  0.35693  0.15216  0.34092  1.0000
  C   C38       1.0  0.32051  0.13376  0.34092  1.0000
  C   C39       1.0  0.30250  0.15217  0.34092  1.0000
  C   C40       1.0  0.32052  0.18859  0.34092  1.0000
  C   C41       1.0  0.35694  0.20660  0.34092  1.0000
  H   H24       1.0  0.27608  0.13897  0.34088  1.0000
  H   H25       1.0  0.37016  0.23302  0.34088  1.0000
  H   H26       1.0  0.37013  0.13894  0.34088  1.0000
  C   C42       1.0  0.23607  0.27302  0.42121  1.0000
  C   C43       1.0  0.21791  0.29117  0.42155  1.0000
  H   H27       1.0  0.24170  0.26740  0.48285  1.0000
  H   H28       1.0  0.21150  0.29758  0.48169  1.0000
  C   C44       1.0  0.26491  0.24420  0.34066  1.0000
  C   C45       1.0  0.30229  0.20684  0.34084  1.0000
  C   C46       1.0  0.29298  0.21614  0.42191  1.0000
  C   C47       1.0  0.27483  0.23428  0.42140  1.0000
  H   H29       1.0  0.29937  0.20975  0.48211  1.0000
  H   H30       1.0  0.26917  0.23993  0.48298  1.0000
  C   C48       1.0  0.23608  0.46486  0.42121  1.0000
  C   C49       1.0  0.21793  0.42855  0.42155  1.0000
  H   H31       1.0  0.24170  0.47612  0.48285  1.0000
  H   H32       1.0  0.21152  0.41574  0.48169  1.0000
  C   C50       1.0  0.26490  0.02253  0.34066  1.0000
  C   C51       1.0  0.30226  0.09727  0.34084  1.0000
  C   C52       1.0  0.29296  0.07867  0.42191  1.0000
  C   C53       1.0  0.27481  0.04236  0.42140  1.0000
  H   H33       1.0  0.29934  0.09144  0.48211  1.0000
  H   H34       1.0  0.26916  0.03106  0.48298  1.0000
  C   C54       1.0  0.48657  0.24419  0.34066  1.0000
  C   C55       1.0  0.41183  0.20682  0.34084  1.0000
  C   C56       1.0  0.43043  0.21612  0.42191  1.0000
  C   C57       1.0  0.46674  0.23428  0.42140  1.0000
  H   H35       1.0  0.41766  0.20974  0.48211  1.0000
  H   H36       1.0  0.47804  0.23993  0.48298  1.0000
  C   C58       1.0  0.20863  0.80044  0.34039  1.0000
  C   C59       1.0  0.21793  0.79114  0.25931  1.0000
  C   C60       1.0  0.23609  0.77299  0.25982  1.0000
  C   C61       1.0  0.24601  0.76308  0.34057  1.0000
  C   C62       1.0  0.27486  0.73426  0.26001  1.0000
  C   C63       1.0  0.29301  0.71611  0.25968  1.0000
  H   H37       1.0  0.26923  0.73989  0.19837  1.0000
  H   H38       1.0  0.29942  0.70970  0.19954  1.0000
  H   H39       1.0  0.21154  0.79752  0.19912  1.0000
  H   H40       1.0  0.24174  0.76734  0.19824  1.0000
  C   C64       1.0  0.20866  0.91001  0.34039  1.0000
  C   C65       1.0  0.21797  0.92861  0.25931  1.0000
  C   C66       1.0  0.23611  0.96492  0.25982  1.0000
  C   C67       1.0  0.24602  0.98475  0.34057  1.0000
  C   C68       1.0  0.27484  0.54242  0.26001  1.0000
  C   C69       1.0  0.29298  0.57872  0.25968  1.0000
  H   H41       1.0  0.26921  0.53116  0.19837  1.0000
  H   H42       1.0  0.29939  0.59154  0.19954  1.0000
  H   H43       1.0  0.21158  0.91584  0.19912  1.0000
  H   H44       1.0  0.24176  0.97622  0.19824  1.0000
  C   C70       1.0  0.46668  0.73425  0.26001  1.0000
  C   C71       1.0  0.43037  0.71609  0.25968  1.0000
  H   H45       1.0  0.47794  0.73988  0.19837  1.0000
  H   H46       1.0  0.41756  0.70969  0.19954  1.0000
  C   C72       1.0  0.19041  0.87352  0.34030  1.0000
  C   C73       1.0  0.20842  0.85511  0.34031  1.0000
  C   C74       1.0  0.19040  0.81869  0.34030  1.0000
  H   H47       1.0  0.23484  0.86831  0.34034  1.0000
  C   C75       1.0  0.37534  0.68858  0.34092  1.0000
  C   C76       1.0  0.35693  0.65216  0.34092  1.0000
  C   C77       1.0  0.32051  0.63376  0.34092  1.0000
  C   C78       1.0  0.30250  0.65217  0.34092  1.0000
  C   C79       1.0  0.32052  0.68859  0.34092  1.0000
  C   C80       1.0  0.35694  0.70660  0.34092  1.0000
  H   H48       1.0  0.27608  0.63897  0.34088  1.0000
  H   H49       1.0  0.37016  0.73302  0.34088  1.0000
  H   H50       1.0  0.37013  0.63894  0.34088  1.0000
  C   C81       1.0  0.23607  0.77302  0.42121  1.0000
  C   C82       1.0  0.21791  0.79117  0.42155  1.0000
  H   H51       1.0  0.24170  0.76740  0.48285  1.0000
  H   H52       1.0  0.21150  0.79758  0.48169  1.0000
  C   C83       1.0  0.26491  0.74420  0.34066  1.0000
  C   C84       1.0  0.30229  0.70684  0.34084  1.0000
  C   C85       1.0  0.29298  0.71614  0.42191  1.0000
  C   C86       1.0  0.27483  0.73428  0.42140  1.0000
  H   H53       1.0  0.29937  0.70975  0.48211  1.0000
  H   H54       1.0  0.26917  0.73993  0.48298  1.0000
  C   C87       1.0  0.23608  0.96486  0.42121  1.0000
  C   C88       1.0  0.21793  0.92856  0.42155  1.0000
  H   H55       1.0  0.24170  0.97612  0.48285  1.0000
  H   H56       1.0  0.21152  0.91574  0.48169  1.0000
  C   C89       1.0  0.26490  0.52253  0.34066  1.0000
  C   C90       1.0  0.30225  0.59727  0.34084  1.0000
  C   C91       1.0  0.29296  0.57867  0.42191  1.0000
  C   C92       1.0  0.27481  0.54236  0.42140  1.0000
  H   H57       1.0  0.29934  0.59144  0.48211  1.0000
  H   H58       1.0  0.26916  0.53106  0.48298  1.0000
  C   C93       1.0  0.48657  0.74419  0.34066  1.0000
  C   C94       1.0  0.41183  0.70682  0.34084  1.0000
  C   C95       1.0  0.43043  0.71612  0.42191  1.0000
  C   C96       1.0  0.46674  0.73428  0.42140  1.0000
  H   H59       1.0  0.41766  0.70974  0.48211  1.0000
  H   H60       1.0  0.47804  0.73993  0.48298  1.0000
  C   C97       1.0  0.70863  0.30044  0.34039  1.0000
  C   C98       1.0  0.71793  0.29114  0.25931  1.0000
  C   C99       1.0  0.73609  0.27299  0.25982  1.0000
  C   C100      1.0  0.74601  0.26308  0.34057  1.0000
  C   C101      1.0  0.77486  0.23426  0.26001  1.0000
  C   C102      1.0  0.79301  0.21611  0.25968  1.0000
  H   H61       1.0  0.76923  0.23989  0.19837  1.0000
  H   H62       1.0  0.79942  0.20970  0.19954  1.0000
  H   H63       1.0  0.71154  0.29752  0.19912  1.0000
  H   H64       1.0  0.74174  0.26734  0.19824  1.0000
  C   C103      1.0  0.70866  0.41001  0.34039  1.0000
  C   C104      1.0  0.71797  0.42861  0.25931  1.0000
  C   C105      1.0  0.73611  0.46491  0.25982  1.0000
  C   C106      1.0  0.74602  0.48475  0.34057  1.0000
  C   C107      1.0  0.77484  0.04242  0.26001  1.0000
  C   C108      1.0  0.79298  0.07872  0.25968  1.0000
  H   H65       1.0  0.76921  0.03116  0.19837  1.0000
  H   H66       1.0  0.79939  0.09154  0.19954  1.0000
  H   H67       1.0  0.71158  0.41584  0.19912  1.0000
  H   H68       1.0  0.74176  0.47622  0.19824  1.0000
  C   C109      1.0  0.59909  0.30046  0.34039  1.0000
  C   C110      1.0  0.58049  0.29116  0.25931  1.0000
  C   C111      1.0  0.54418  0.27300  0.25982  1.0000
  C   C112      1.0  0.52435  0.26308  0.34057  1.0000
  C   C113      1.0  0.96668  0.23425  0.26001  1.0000
  C   C114      1.0  0.93038  0.21609  0.25968  1.0000
  H   H69       1.0  0.97794  0.23988  0.19837  1.0000
  H   H70       1.0  0.91756  0.20969  0.19954  1.0000
  H   H71       1.0  0.59326  0.29754  0.19912  1.0000
  H   H72       1.0  0.53288  0.26735  0.19824  1.0000
  C   C115      1.0  0.63558  0.31870  0.34030  1.0000
  C   C116      1.0  0.65399  0.35512  0.34031  1.0000
  C   C117      1.0  0.69041  0.37352  0.34030  1.0000
  C   C118      1.0  0.70842  0.35511  0.34031  1.0000
  C   C119      1.0  0.69040  0.31869  0.34030  1.0000
  C   C120      1.0  0.65398  0.30068  0.34031  1.0000
  H   H73       1.0  0.73484  0.36831  0.34034  1.0000
  H   H74       1.0  0.64076  0.27426  0.34034  1.0000
  H   H75       1.0  0.64079  0.36833  0.34034  1.0000
  C   C121      1.0  0.87534  0.18858  0.34092  1.0000
  C   C122      1.0  0.85693  0.15216  0.34092  1.0000
  C   C123      1.0  0.82051  0.13376  0.34092  1.0000
  C   C124      1.0  0.80250  0.15217  0.34092  1.0000
  C   C125      1.0  0.82052  0.18859  0.34092  1.0000
  C   C126      1.0  0.85694  0.20660  0.34092  1.0000
  H   H76       1.0  0.77608  0.13897  0.34088  1.0000
  H   H77       1.0  0.87016  0.23302  0.34088  1.0000
  H   H78       1.0  0.87013  0.13894  0.34088  1.0000
  C   C127      1.0  0.73607  0.27302  0.42121  1.0000
  C   C128      1.0  0.71791  0.29117  0.42155  1.0000
  H   H79       1.0  0.74170  0.26740  0.48285  1.0000
  H   H80       1.0  0.71150  0.29758  0.48169  1.0000
  C   C129      1.0  0.76491  0.24420  0.34066  1.0000
  C   C130      1.0  0.80229  0.20684  0.34084  1.0000
  C   C131      1.0  0.79298  0.21614  0.42191  1.0000
  C   C132      1.0  0.77483  0.23428  0.42140  1.0000
  H   H81       1.0  0.79937  0.20975  0.48211  1.0000
  H   H82       1.0  0.76917  0.23993  0.48298  1.0000
  C   C133      1.0  0.73608  0.46486  0.42121  1.0000
  C   C134      1.0  0.71793  0.42855  0.42155  1.0000
  H   H83       1.0  0.74170  0.47612  0.48285  1.0000
  H   H84       1.0  0.71152  0.41574  0.48169  1.0000
  C   C135      1.0  0.76490  0.02253  0.34066  1.0000
  C   C136      1.0  0.80225  0.09727  0.34084  1.0000
  C   C137      1.0  0.79296  0.07867  0.42191  1.0000
  C   C138      1.0  0.77481  0.04236  0.42140  1.0000
  H   H85       1.0  0.79934  0.09144  0.48211  1.0000
  H   H86       1.0  0.76916  0.03106  0.48298  1.0000
  C   C139      1.0  0.54424  0.27303  0.42121  1.0000
  C   C140      1.0  0.58054  0.29118  0.42155  1.0000
  H   H87       1.0  0.53298  0.26739  0.48285  1.0000
  H   H88       1.0  0.59336  0.29759  0.48169  1.0000
  C   C141      1.0  0.98657  0.24419  0.34066  1.0000
  C   C142      1.0  0.91183  0.20682  0.34084  1.0000
  C   C143      1.0  0.93043  0.21612  0.42191  1.0000
  C   C144      1.0  0.96674  0.23428  0.42140  1.0000
  H   H89       1.0  0.91766  0.20974  0.48211  1.0000
  H   H90       1.0  0.97804  0.23993  0.48298  1.0000
  C   C145      1.0  0.70863  0.80044  0.34039  1.0000
  C   C146      1.0  0.71794  0.79114  0.25931  1.0000
  C   C147      1.0  0.73609  0.77299  0.25982  1.0000
  C   C148      1.0  0.74601  0.76308  0.34057  1.0000
  C   C149      1.0  0.77486  0.73426  0.26001  1.0000
  C   C150      1.0  0.79301  0.71611  0.25968  1.0000
  H   H91       1.0  0.76923  0.73989  0.19837  1.0000
  H   H92       1.0  0.79942  0.70970  0.19954  1.0000
  H   H93       1.0  0.71155  0.79752  0.19912  1.0000
  H   H94       1.0  0.74174  0.76734  0.19824  1.0000
  C   C151      1.0  0.70866  0.91001  0.34039  1.0000
  C   C152      1.0  0.71797  0.92861  0.25931  1.0000
  C   C153      1.0  0.73611  0.96492  0.25982  1.0000
  C   C154      1.0  0.74602  0.98475  0.34057  1.0000
  C   C155      1.0  0.77484  0.54242  0.26001  1.0000
  C   C156      1.0  0.79298  0.57872  0.25968  1.0000
  H   H95       1.0  0.76921  0.53116  0.19837  1.0000
  H   H96       1.0  0.79939  0.59154  0.19954  1.0000
  H   H97       1.0  0.71158  0.91584  0.19912  1.0000
  H   H98       1.0  0.74176  0.97622  0.19824  1.0000
  C   C157      1.0  0.59909  0.80046  0.34039  1.0000
  C   C158      1.0  0.58049  0.79116  0.25931  1.0000
  C   C159      1.0  0.54418  0.77300  0.25982  1.0000
  C   C160      1.0  0.52435  0.76309  0.34057  1.0000
  C   C161      1.0  0.96668  0.73425  0.26001  1.0000
  C   C162      1.0  0.93038  0.71609  0.25968  1.0000
  H   H99       1.0  0.97794  0.73988  0.19837  1.0000
  H   H100      1.0  0.91756  0.70969  0.19954  1.0000
  H   H101      1.0  0.59326  0.79755  0.19912  1.0000
  H   H102      1.0  0.53288  0.76735  0.19824  1.0000
  C   C163      1.0  0.63558  0.81870  0.34030  1.0000
  C   C164      1.0  0.65399  0.85512  0.34031  1.0000
  C   C165      1.0  0.69041  0.87352  0.34030  1.0000
  C   C166      1.0  0.70842  0.85511  0.34031  1.0000
  C   C167      1.0  0.69040  0.81869  0.34030  1.0000
  C   C168      1.0  0.65398  0.80068  0.34031  1.0000
  H   H103      1.0  0.73484  0.86831  0.34034  1.0000
  H   H104      1.0  0.64076  0.77426  0.34034  1.0000
  H   H105      1.0  0.64079  0.86833  0.34034  1.0000
  C   C169      1.0  0.87534  0.68858  0.34092  1.0000
  C   C170      1.0  0.85693  0.65216  0.34092  1.0000
  C   C171      1.0  0.82051  0.63376  0.34092  1.0000
  C   C172      1.0  0.80250  0.65217  0.34092  1.0000
  C   C173      1.0  0.82053  0.68859  0.34092  1.0000
  C   C174      1.0  0.85694  0.70660  0.34092  1.0000
  H   H106      1.0  0.77608  0.63897  0.34088  1.0000
  H   H107      1.0  0.87016  0.73302  0.34088  1.0000
  H   H108      1.0  0.87013  0.63894  0.34088  1.0000
  C   C175      1.0  0.73607  0.77302  0.42121  1.0000
  C   C176      1.0  0.71791  0.79117  0.42155  1.0000
  H   H109      1.0  0.74170  0.76740  0.48285  1.0000
  H   H110      1.0  0.71150  0.79758  0.48169  1.0000
  C   C177      1.0  0.76491  0.74420  0.34066  1.0000
  C   C178      1.0  0.80229  0.70684  0.34084  1.0000
  C   C179      1.0  0.79299  0.71614  0.42191  1.0000
  C   C180      1.0  0.77483  0.73428  0.42140  1.0000
  H   H111      1.0  0.79937  0.70975  0.48211  1.0000
  H   H112      1.0  0.76917  0.73993  0.48298  1.0000
  C   C181      1.0  0.73608  0.96486  0.42121  1.0000
  C   C182      1.0  0.71793  0.92856  0.42155  1.0000
  H   H113      1.0  0.74170  0.97612  0.48285  1.0000
  H   H114      1.0  0.71152  0.91574  0.48169  1.0000
  C   C183      1.0  0.76490  0.52253  0.34066  1.0000
  C   C184      1.0  0.80226  0.59727  0.34084  1.0000
  C   C185      1.0  0.79296  0.57867  0.42191  1.0000
  C   C186      1.0  0.77481  0.54236  0.42140  1.0000
  H   H115      1.0  0.79934  0.59144  0.48211  1.0000
  H   H116      1.0  0.76917  0.53106  0.48298  1.0000
  C   C187      1.0  0.54424  0.77303  0.42121  1.0000
  C   C188      1.0  0.58055  0.79118  0.42155  1.0000
  H   H117      1.0  0.53298  0.76739  0.48285  1.0000
  H   H118      1.0  0.59336  0.79759  0.48169  1.0000
  C   C189      1.0  0.98657  0.74419  0.34066  1.0000
  C   C190      1.0  0.91183  0.70682  0.34084  1.0000
  C   C191      1.0  0.93043  0.71612  0.42191  1.0000
  C   C192      1.0  0.96674  0.73428  0.42140  1.0000
  H   H119      1.0  0.91766  0.70974  0.48211  1.0000
  H   H120      1.0  0.97804  0.73993  0.48298  1.0000
