data_image0
_chemical_formula_structural       C13H9C13H9C13H9C13H9C2HC3N2HC2HC3N2HC2HC3N2HC2NC2HNCHC2NC2HNCHC2NC2HNCHC17H12C17H12C17H12C17H12C2NC2HNCHC2NC2HNCHC2NC2HNCHC2HC3N2HC2HC3N2HC2HC3N2H
_chemical_formula_sum              "C180 H108 N24"
_cell_length_a       68.3706
_cell_length_b       68.3537
_cell_length_c       14.9811
_cell_angle_alpha    90
_cell_angle_beta     90
_cell_angle_gamma    120.004

_space_group_name_H-M_alt    "P 1"
_space_group_IT_number       1

loop_
  _space_group_symop_operation_xyz
  'x, y, z'

loop_
  _atom_site_type_symbol
  _atom_site_label
  _atom_site_symmetry_multiplicity
  _atom_site_fract_x
  _atom_site_fract_y
  _atom_site_fract_z
  _atom_site_occupancy
  C   C1        1.0  0.92559  0.86382  0.32748  1.0000
  C   C2        1.0  0.94864  0.91220  0.32414  1.0000
  C   C3        1.0  0.92622  0.89929  0.29252  1.0000
  C   C4        1.0  0.91490  0.87552  0.29434  1.0000
  C   C5        1.0  0.95957  0.93568  0.31995  1.0000
  C   C6        1.0  0.05474  0.02519  0.32574  1.0000
  C   C7        1.0  0.09093  0.02934  0.28424  1.0000
  C   C8        1.0  0.12658  0.06188  0.33405  1.0000
  C   C9        1.0  0.11470  0.04149  0.28543  1.0000
  C   C10       1.0  0.97137  0.03589  0.32857  1.0000
  C   C11       1.0  0.93490  0.03387  0.31018  1.0000
  C   C12       1.0  0.93168  0.06777  0.33359  1.0000
  C   C13       1.0  0.92189  0.04461  0.31113  1.0000
  H   H1        1.0  0.89855  0.86684  0.27235  1.0000
  H   H2        1.0  0.91783  0.90709  0.26843  1.0000
  H   H3        1.0  0.92726  0.01713  0.29335  1.0000
  H   H4        1.0  0.08296  0.01459  0.24857  1.0000
  H   H5        1.0  0.12328  0.03515  0.25127  1.0000
  H   H6        1.0  0.90505  0.03521  0.29639  1.0000
  H   H7        1.0  0.04795  0.01776  0.26770  1.0000
  H   H8        1.0  0.95741  0.94253  0.26483  1.0000
  H   H9        1.0  0.98467  0.04268  0.28795  1.0000
  C   C14       1.0  0.50693  0.34230  0.31450  1.0000
  C   C15       1.0  0.47357  0.29535  0.31813  1.0000
  C   C16       1.0  0.49408  0.30304  0.27128  1.0000
  C   C17       1.0  0.51047  0.32610  0.26960  1.0000
  C   C18       1.0  0.45814  0.27229  0.31993  1.0000
  C   C19       1.0  0.36546  0.18511  0.33721  1.0000
  C   C20       1.0  0.32951  0.18091  0.29119  1.0000
  C   C21       1.0  0.29361  0.14835  0.33871  1.0000
  C   C22       1.0  0.30574  0.16875  0.29034  1.0000
  C   C23       1.0  0.45041  0.17635  0.34870  1.0000
  C   C24       1.0  0.48644  0.18393  0.29092  1.0000
  C   C25       1.0  0.50214  0.15961  0.32987  1.0000
  C   C26       1.0  0.50379  0.17864  0.28516  1.0000
  H   H10       1.0  0.52536  0.33085  0.23716  1.0000
  H   H11       1.0  0.49752  0.29186  0.23929  1.0000
  H   H12       1.0  0.48841  0.19804  0.25874  1.0000
  H   H13       1.0  0.33769  0.19570  0.25582  1.0000
  H   H14       1.0  0.29735  0.17511  0.25504  1.0000
  H   H15       1.0  0.51799  0.18931  0.24977  1.0000
  H   H16       1.0  0.37268  0.19242  0.27952  1.0000
  H   H17       1.0  0.45597  0.26369  0.26352  1.0000
  H   H18       1.0  0.43858  0.17077  0.30159  1.0000
  C   C27       1.0  0.64833  0.16518  0.31533  1.0000
  C   C28       1.0  0.69530  0.17876  0.31885  1.0000
  C   C29       1.0  0.68758  0.19152  0.27176  1.0000
  C   C30       1.0  0.66453  0.18487  0.27018  1.0000
  C   C31       1.0  0.71836  0.18638  0.32032  1.0000
  C   C32       1.0  0.80311  0.17830  0.33688  1.0000
  C   C33       1.0  0.80585  0.14459  0.31486  1.0000
  C   C34       1.0  0.84179  0.14517  0.33672  1.0000
  C   C35       1.0  0.81856  0.13355  0.31410  1.0000
  C   C36       1.0  0.81433  0.27475  0.34848  1.0000
  C   C37       1.0  0.80677  0.30323  0.29081  1.0000
  C   C38       1.0  0.83110  0.34324  0.33004  1.0000
  C   C39       1.0  0.81208  0.32588  0.28516  1.0000
  H   H19       1.0  0.65979  0.19500  0.23753  1.0000
  H   H20       1.0  0.69875  0.20613  0.23955  1.0000
  H   H21       1.0  0.79268  0.29111  0.25854  1.0000
  H   H22       1.0  0.78907  0.13554  0.29852  1.0000
  H   H23       1.0  0.81053  0.11674  0.29817  1.0000
  H   H24       1.0  0.80145  0.32945  0.24971  1.0000
  H   H25       1.0  0.79294  0.17519  0.28466  1.0000
  H   H26       1.0  0.72692  0.19290  0.26390  1.0000
  H   H27       1.0  0.81998  0.26856  0.30136  1.0000
  C   C40       1.0  0.82570  0.48394  0.31577  1.0000
  C   C41       1.0  0.81198  0.51722  0.31977  1.0000
  C   C42       1.0  0.79925  0.49674  0.27257  1.0000
  C   C43       1.0  0.80598  0.48039  0.27073  1.0000
  C   C44       1.0  0.80427  0.53259  0.32153  1.0000
  C   C45       1.0  0.81433  0.62535  0.33949  1.0000
  C   C46       1.0  0.84846  0.66187  0.34656  1.0000
  C   C47       1.0  0.84671  0.69679  0.33876  1.0000
  C   C48       1.0  0.85932  0.68562  0.34671  1.0000
  C   C49       1.0  0.71594  0.54008  0.34782  1.0000
  C   C50       1.0  0.68747  0.50403  0.29037  1.0000
  C   C51       1.0  0.64748  0.48845  0.32921  1.0000
  C   C52       1.0  0.66482  0.48671  0.28470  1.0000
  H   H28       1.0  0.79588  0.46552  0.23807  1.0000
  H   H29       1.0  0.78463  0.49327  0.24047  1.0000
  H   H30       1.0  0.69959  0.50201  0.25836  1.0000
  H   H31       1.0  0.85809  0.65429  0.35144  1.0000
  H   H32       1.0  0.87658  0.69470  0.35078  1.0000
  H   H33       1.0  0.66125  0.47246  0.24951  1.0000
  H   H34       1.0  0.81929  0.61844  0.29265  1.0000
  H   H35       1.0  0.79782  0.53469  0.26507  1.0000
  H   H36       1.0  0.72219  0.55191  0.30068  1.0000
  C   C53       1.0  0.23361  0.11740  0.25702  1.0000
  C   C54       1.0  0.25737  0.12991  0.25663  1.0000
  H   H37       1.0  0.26574  0.13410  0.19682  1.0000
  C   C55       1.0  0.15061  0.07428  0.33464  1.0000
  C   C56       1.0  0.16312  0.08025  0.25411  1.0000
  C   C57       1.0  0.18687  0.09278  0.25578  1.0000
  N   N1        1.0  0.19932  0.09916  0.17961  1.0000
  N   N2        1.0  0.22143  0.11084  0.18020  1.0000
  H   H38       1.0  0.15497  0.07591  0.19383  1.0000
  C   C58       1.0  0.86570  0.10844  0.26587  1.0000
  C   C59       1.0  0.85287  0.11936  0.26538  1.0000
  H   H39       1.0  0.84250  0.11692  0.21218  1.0000
  C   C60       1.0  0.91852  0.07870  0.33429  1.0000
  C   C61       1.0  0.90336  0.07560  0.26402  1.0000
  C   C62       1.0  0.89072  0.08672  0.26524  1.0000
  N   N3        1.0  0.87624  0.08423  0.19831  1.0000
  N   N4        1.0  0.86440  0.09450  0.19862  1.0000
  H   H40       1.0  0.90178  0.06559  0.21054  1.0000
  C   C63       1.0  0.86731  0.75617  0.26202  1.0000
  C   C64       1.0  0.85581  0.73239  0.26304  1.0000
  H   H41       1.0  0.84642  0.72365  0.20869  1.0000
  C   C65       1.0  0.91411  0.83969  0.32905  1.0000
  C   C66       1.0  0.90090  0.82667  0.25577  1.0000
  C   C67       1.0  0.88968  0.80292  0.25840  1.0000
  N   N5        1.0  0.87687  0.79006  0.18914  1.0000
  N   N6        1.0  0.86626  0.76794  0.19091  1.0000
  H   H42       1.0  0.89965  0.83441  0.19933  1.0000
  C   C68       1.0  0.62515  0.15929  0.31578  1.0000
  C   C69       1.0  0.61438  0.16028  0.23649  1.0000
  N   N7        1.0  0.59338  0.15768  0.23892  1.0000
  C   C70       1.0  0.58139  0.15365  0.31560  1.0000
  C   C71       1.0  0.56039  0.15282  0.31767  1.0000
  H   H43       1.0  0.62245  0.16367  0.17627  1.0000
  N   N8        1.0  0.55104  0.15596  0.24308  1.0000
  C   C72       1.0  0.53173  0.15697  0.24464  1.0000
  H   H44       1.0  0.52601  0.15980  0.18575  1.0000
  C   C73       1.0  0.83163  0.46668  0.31616  1.0000
  C   C74       1.0  0.83069  0.45495  0.23682  1.0000
  N   N9        1.0  0.83324  0.43653  0.23925  1.0000
  C   C75       1.0  0.83720  0.42852  0.31596  1.0000
  C   C76       1.0  0.83800  0.40833  0.31800  1.0000
  H   H45       1.0  0.82730  0.45965  0.17661  1.0000
  N   N10       1.0  0.83488  0.39586  0.24336  1.0000
  C   C77       1.0  0.83383  0.37552  0.24488  1.0000
  H   H46       1.0  0.83105  0.36699  0.18595  1.0000
  C   C78       1.0  0.52421  0.36548  0.31502  1.0000
  C   C79       1.0  0.53596  0.37627  0.23574  1.0000
  N   N11       1.0  0.55435  0.39727  0.23825  1.0000
  C   C80       1.0  0.56230  0.40923  0.31498  1.0000
  C   C81       1.0  0.58245  0.43024  0.31710  1.0000
  H   H47       1.0  0.53127  0.36819  0.17550  1.0000
  N   N12       1.0  0.59492  0.43961  0.24248  1.0000
  C   C82       1.0  0.61523  0.45892  0.24401  1.0000
  H   H48       1.0  0.62378  0.46465  0.18513  1.0000
  C   C83       1.0  0.94810  0.87682  0.35842  1.0000
  C   C84       1.0  0.95949  0.90058  0.35631  1.0000
  C   C85       1.0  0.97205  0.94944  0.38667  1.0000
  C   C86       1.0  0.98261  0.97277  0.38171  1.0000
  C   C87       1.0  0.96989  0.98390  0.37840  1.0000
  C   C88       1.0  0.98059  0.00777  0.37852  1.0000
  C   C89       1.0  0.00447  0.02045  0.38361  1.0000
  C   C90       1.0  0.01747  0.00963  0.38633  1.0000
  C   C91       1.0  0.00640  0.98579  0.38622  1.0000
  C   C92       1.0  0.04074  0.02224  0.39399  1.0000
  C   C93       1.0  0.07825  0.03724  0.33102  1.0000
  C   C94       1.0  0.09019  0.05783  0.37859  1.0000
  C   C95       1.0  0.11396  0.06982  0.38090  1.0000
  C   C96       1.0  0.96745  0.01809  0.37963  1.0000
  C   C97       1.0  0.95815  0.04603  0.33142  1.0000
  C   C98       1.0  0.96809  0.06919  0.35283  1.0000
  C   C99       1.0  0.95500  0.07983  0.35457  1.0000
  H   H49       1.0  0.95668  0.86908  0.38099  1.0000
  H   H50       1.0  0.97590  0.90932  0.37768  1.0000
  H   H51       1.0  0.01574  0.97786  0.39037  1.0000
  H   H52       1.0  0.95259  0.97447  0.37706  1.0000
  H   H53       1.0  0.01247  0.03774  0.38652  1.0000
  H   H54       1.0  0.12199  0.08478  0.41509  1.0000
  H   H55       1.0  0.08170  0.06449  0.41124  1.0000
  H   H56       1.0  0.96285  0.09669  0.36944  1.0000
  H   H57       1.0  0.98495  0.07852  0.36765  1.0000
  H   H58       1.0  0.04697  0.02911  0.45319  1.0000
  H   H59       1.0  0.97423  0.94288  0.44252  1.0000
  H   H60       1.0  0.95408  0.01149  0.42002  1.0000
  C   C100      1.0  0.48635  0.33459  0.36109  1.0000
  C   C101      1.0  0.46982  0.31148  0.36235  1.0000
  C   C102      1.0  0.44864  0.26066  0.39518  1.0000
  C   C103      1.0  0.43731  0.23729  0.39718  1.0000
  C   C104      1.0  0.44984  0.22600  0.40052  1.0000
  C   C105      1.0  0.43896  0.20217  0.40433  1.0000
  C   C106      1.0  0.41508  0.18963  0.40614  1.0000
  C   C107      1.0  0.40226  0.20066  0.40285  1.0000
  C   C108      1.0  0.41350  0.22453  0.39896  1.0000
  C   C109      1.0  0.37893  0.18820  0.40762  1.0000
  C   C110      1.0  0.34193  0.17300  0.33987  1.0000
  C   C111      1.0  0.32974  0.15236  0.38692  1.0000
  C   C112      1.0  0.30596  0.14037  0.38716  1.0000
  C   C113      1.0  0.45218  0.19200  0.40759  1.0000
  C   C114      1.0  0.46690  0.17033  0.34196  1.0000
  C   C115      1.0  0.46494  0.15121  0.38638  1.0000
  C   C116      1.0  0.48244  0.14602  0.38076  1.0000
  H   H61       1.0  0.48311  0.34580  0.39393  1.0000
  H   H62       1.0  0.45509  0.30652  0.39638  1.0000
  H   H63       1.0  0.40432  0.23266  0.39791  1.0000
  H   H64       1.0  0.46717  0.23530  0.39972  1.0000
  H   H65       1.0  0.40700  0.17236  0.41029  1.0000
  H   H66       1.0  0.29775  0.12541  0.42130  1.0000
  H   H67       1.0  0.33805  0.14570  0.42091  1.0000
  H   H68       1.0  0.48059  0.13210  0.41387  1.0000
  H   H69       1.0  0.45095  0.14114  0.42405  1.0000
  H   H70       1.0  0.37221  0.18137  0.46635  1.0000
  H   H71       1.0  0.45185  0.26865  0.45346  1.0000
  H   H72       1.0  0.46520  0.19857  0.44983  1.0000
  C   C117      1.0  0.65606  0.15236  0.36220  1.0000
  C   C118      1.0  0.67917  0.15893  0.36344  1.0000
  C   C119      1.0  0.73010  0.18832  0.39507  1.0000
  C   C120      1.0  0.75347  0.20047  0.39662  1.0000
  C   C121      1.0  0.76463  0.22429  0.40048  1.0000
  C   C122      1.0  0.78845  0.23738  0.40331  1.0000
  C   C123      1.0  0.80111  0.22617  0.40362  1.0000
  C   C124      1.0  0.79028  0.20232  0.39965  1.0000
  C   C125      1.0  0.76639  0.18958  0.39683  1.0000
  C   C126      1.0  0.80314  0.19179  0.40233  1.0000
  C   C127      1.0  0.81593  0.16765  0.33856  1.0000
  C   C128      1.0  0.83920  0.17942  0.36000  1.0000
  C   C129      1.0  0.85186  0.16832  0.35961  1.0000
  C   C130      1.0  0.79850  0.26076  0.40658  1.0000
  C   C131      1.0  0.82032  0.29725  0.34200  1.0000
  C   C132      1.0  0.83942  0.31438  0.38658  1.0000
  C   C133      1.0  0.84464  0.33708  0.38102  1.0000
  H   H73       1.0  0.64486  0.13795  0.39526  1.0000
  H   H74       1.0  0.68413  0.14918  0.39761  1.0000
  H   H75       1.0  0.75836  0.17227  0.39542  1.0000
  H   H76       1.0  0.75523  0.23222  0.40060  1.0000
  H   H77       1.0  0.81839  0.23550  0.40682  1.0000
  H   H78       1.0  0.86871  0.17750  0.37444  1.0000
  H   H79       1.0  0.84723  0.19627  0.37530  1.0000
  H   H80       1.0  0.85855  0.34914  0.41421  1.0000
  H   H81       1.0  0.84947  0.31044  0.42425  1.0000
  H   H82       1.0  0.81317  0.19498  0.45498  1.0000
  H   H83       1.0  0.72219  0.18346  0.45348  1.0000
  H   H84       1.0  0.79187  0.26717  0.44877  1.0000
  C   C134      1.0  0.83848  0.50449  0.36275  1.0000
  C   C135      1.0  0.83183  0.52097  0.36420  1.0000
  C   C136      1.0  0.80217  0.54221  0.39649  1.0000
  C   C137      1.0  0.79007  0.55348  0.39807  1.0000
  C   C138      1.0  0.76626  0.54084  0.40188  1.0000
  C   C139      1.0  0.75320  0.55161  0.40373  1.0000
  C   C140      1.0  0.76443  0.57549  0.40283  1.0000
  C   C141      1.0  0.78829  0.58852  0.39881  1.0000
  C   C142      1.0  0.80098  0.57730  0.39735  1.0000
  C   C143      1.0  0.79873  0.61195  0.39958  1.0000
  C   C144      1.0  0.82469  0.64872  0.34074  1.0000
  C   C145      1.0  0.81204  0.65987  0.33282  1.0000
  C   C146      1.0  0.82295  0.68363  0.33129  1.0000
  C   C147      1.0  0.72982  0.53831  0.40668  1.0000
  C   C148      1.0  0.69344  0.52362  0.34119  1.0000
  C   C149      1.0  0.67632  0.52565  0.38550  1.0000
  C   C150      1.0  0.65362  0.50819  0.37992  1.0000
  H   H85       1.0  0.85290  0.50773  0.39574  1.0000
  H   H86       1.0  0.84154  0.53567  0.39849  1.0000
  H   H87       1.0  0.81827  0.58651  0.39594  1.0000
  H   H88       1.0  0.75831  0.52352  0.40250  1.0000
  H   H89       1.0  0.75509  0.58344  0.40495  1.0000
  H   H90       1.0  0.81337  0.69125  0.32580  1.0000
  H   H91       1.0  0.79481  0.65080  0.32723  1.0000
  H   H92       1.0  0.64156  0.51008  0.41289  1.0000
  H   H93       1.0  0.68026  0.53968  0.42295  1.0000
  H   H94       1.0  0.79381  0.61897  0.44617  1.0000
  H   H95       1.0  0.80706  0.53917  0.45486  1.0000
  H   H96       1.0  0.72337  0.52533  0.44909  1.0000
  C   C151      1.0  0.26958  0.13602  0.33788  1.0000
  C   C152      1.0  0.25705  0.12928  0.41831  1.0000
  N   N13       1.0  0.23412  0.11754  0.41674  1.0000
  C   C153      1.0  0.22199  0.11136  0.33975  1.0000
  C   C154      1.0  0.19819  0.09901  0.33911  1.0000
  H   H97       1.0  0.26499  0.13344  0.47889  1.0000
  N   N14       1.0  0.18578  0.09299  0.41541  1.0000
  C   C155      1.0  0.16285  0.08122  0.41572  1.0000
  H   H98       1.0  0.15469  0.07719  0.47585  1.0000
  C   C156      1.0  0.85466  0.13393  0.33614  1.0000
  C   C157      1.0  0.86975  0.13688  0.40648  1.0000
  N   N15       1.0  0.88184  0.12604  0.40557  1.0000
  C   C158      1.0  0.88043  0.11206  0.33840  1.0000
  C   C159      1.0  0.89317  0.10100  0.33807  1.0000
  H   H99       1.0  0.87155  0.14688  0.46013  1.0000
  N   N16       1.0  0.90773  0.10364  0.40485  1.0000
  C   C160      1.0  0.92022  0.09322  0.40504  1.0000
  H   H100      1.0  0.93060  0.09589  0.45831  1.0000
  C   C161      1.0  0.85775  0.72072  0.33740  1.0000
  C   C162      1.0  0.87133  0.73366  0.40985  1.0000
  N   N17       1.0  0.88193  0.75657  0.40765  1.0000
  C   C163      1.0  0.88046  0.76824  0.33703  1.0000
  C   C164      1.0  0.89174  0.79204  0.33537  1.0000
  H   H101      1.0  0.87316  0.72601  0.46534  1.0000
  N   N18       1.0  0.90445  0.80484  0.40486  1.0000
  C   C165      1.0  0.91544  0.82776  0.40401  1.0000
  H   H102      1.0  0.92437  0.83613  0.45959  1.0000
  C   C166      1.0  0.59087  0.15169  0.39689  1.0000
  C   C167      1.0  0.61264  0.15427  0.39627  1.0000
  H   H103      1.0  0.61994  0.15411  0.45573  1.0000
  C   C168      1.0  0.52045  0.15520  0.32614  1.0000
  C   C169      1.0  0.52941  0.15104  0.40453  1.0000
  C   C170      1.0  0.54951  0.15008  0.40099  1.0000
  N   N19       1.0  0.55958  0.14794  0.47568  1.0000
  N   N20       1.0  0.57912  0.14869  0.47374  1.0000
  H   H104      1.0  0.52234  0.15039  0.46545  1.0000
  C   C171      1.0  0.83913  0.43993  0.39729  1.0000
  C   C172      1.0  0.83657  0.45914  0.39668  1.0000
  H   H105      1.0  0.83673  0.46660  0.45613  1.0000
  C   C173      1.0  0.83554  0.36596  0.32638  1.0000
  C   C174      1.0  0.83965  0.37905  0.40483  1.0000
  C   C175      1.0  0.84067  0.40015  0.40133  1.0000
  N   N21       1.0  0.84281  0.41234  0.47606  1.0000
  N   N22       1.0  0.84208  0.43115  0.47415  1.0000
  H   H106      1.0  0.84030  0.37261  0.46572  1.0000
  C   C176      1.0  0.55088  0.39974  0.39628  1.0000
  C   C177      1.0  0.53169  0.37795  0.39558  1.0000
  H   H107      1.0  0.52421  0.37064  0.45498  1.0000
  C   C178      1.0  0.62476  0.47017  0.32556  1.0000
  C   C179      1.0  0.61167  0.46119  0.40399  1.0000
  C   C180      1.0  0.59060  0.44111  0.40045  1.0000
  N   N23       1.0  0.57840  0.43102  0.47514  1.0000
  N   N24       1.0  0.55962  0.41147  0.47317  1.0000
  H   H108      1.0  0.61810  0.46829  0.46488  1.0000
