data_image0
_chemical_formula_structural       C6H6N2C6H6N2C3H2CHC3H2CHC3H2CHC12H5CNC2NHN2C12H5CNC2NHN2C3HNH2CHC3HNH2CHC3HNH2CH
_chemical_formula_sum              "C66 H45 N15"
_cell_length_a       37.0563
_cell_length_b       37.0563
_cell_length_c       14.7015
_cell_angle_alpha    90
_cell_angle_beta     90
_cell_angle_gamma    120

_space_group_name_H-M_alt    "P 1"
_space_group_IT_number       1

loop_
  _space_group_symop_operation_xyz
  'x, y, z'

loop_
  _atom_site_type_symbol
  _atom_site_label
  _atom_site_symmetry_multiplicity
  _atom_site_fract_x
  _atom_site_fract_y
  _atom_site_fract_z
  _atom_site_occupancy
  C   C1        1.0  0.39131  0.76445  0.35813  1.0000
  C   C2        1.0  0.19357  0.62992  0.34714  1.0000
  C   C3        1.0  0.23745  0.65228  0.34651  1.0000
  C   C4        1.0  0.37004  0.78697  0.37096  1.0000
  C   C5        1.0  0.39158  0.83087  0.37238  1.0000
  C   C6        1.0  0.43511  0.85395  0.35957  1.0000
  H   H1        1.0  0.17797  0.64598  0.33969  1.0000
  H   H2        1.0  0.25202  0.68385  0.33727  1.0000
  H   H3        1.0  0.33847  0.77166  0.38056  1.0000
  H   H4        1.0  0.37510  0.84594  0.38247  1.0000
  H   H5        1.0  0.37940  0.53706  0.33967  1.0000
  H   H6        1.0  0.34153  0.57325  0.33727  1.0000
  N   N1        1.0  0.32719  0.69717  0.35775  1.0000
  N   N2        1.0  0.45354  0.89541  0.36319  1.0000
  C   C7        1.0  0.63964  0.25583  0.35629  1.0000
  C   C8        1.0  0.83706  0.39099  0.36159  1.0000
  C   C9        1.0  0.79319  0.36845  0.36092  1.0000
  C   C10       1.0  0.66139  0.23343  0.35197  1.0000
  C   C11       1.0  0.64006  0.18952  0.35242  1.0000
  C   C12       1.0  0.59620  0.16623  0.35766  1.0000
  H   H7        1.0  0.85258  0.37473  0.36458  1.0000
  H   H8        1.0  0.77876  0.33665  0.36407  1.0000
  H   H9        1.0  0.69321  0.24882  0.34820  1.0000
  H   H10       1.0  0.65698  0.17458  0.34913  1.0000
  H   H11       1.0  0.65065  0.48293  0.36458  1.0000
  H   H12       1.0  0.68873  0.44719  0.36404  1.0000
  N   N3        1.0  0.70350  0.32339  0.35601  1.0000
  N   N4        1.0  0.57830  0.12472  0.35763  1.0000
  C   C13       1.0  0.51809  0.48456  0.28883  1.0000
  C   C14       1.0  0.48891  0.49796  0.27858  1.0000
  C   C15       1.0  0.48545  0.52389  0.34425  1.0000
  H   H13       1.0  0.52037  0.46680  0.23819  1.0000
  H   H14       1.0  0.47070  0.48918  0.22138  1.0000
  C   C16       1.0  0.45626  0.53672  0.33260  1.0000
  H   H15       1.0  0.43066  0.51863  0.29690  1.0000
  C   C17       1.0  0.54084  0.03861  0.28885  1.0000
  C   C18       1.0  0.52744  0.99602  0.27863  1.0000
  C   C19       1.0  0.50149  0.96663  0.34429  1.0000
  H   H16       1.0  0.55860  0.05863  0.23822  1.0000
  H   H17       1.0  0.53622  0.98658  0.22145  1.0000
  C   C20       1.0  0.48867  0.92462  0.33267  1.0000
  H   H18       1.0  0.50678  0.91711  0.29703  1.0000
  C   C21       1.0  0.98677  0.50729  0.28882  1.0000
  C   C22       1.0  0.02936  0.53647  0.27858  1.0000
  C   C23       1.0  0.05875  0.53993  0.34426  1.0000
  H   H19       1.0  0.96674  0.50501  0.23818  1.0000
  H   H20       1.0  0.03880  0.55469  0.22138  1.0000
  C   C24       1.0  0.10076  0.56912  0.33262  1.0000
  H   H21       1.0  0.10827  0.59473  0.29694  1.0000
  C   C25       1.0  0.26093  0.63194  0.35812  1.0000
  C   C26       1.0  0.39344  0.63407  0.35811  1.0000
  C   C27       1.0  0.23841  0.58815  0.37094  1.0000
  C   C28       1.0  0.19451  0.56579  0.37235  1.0000
  C   C29       1.0  0.17143  0.58622  0.35951  1.0000
  C   C30       1.0  0.45666  0.83181  0.34714  1.0000
  C   C31       1.0  0.43514  0.78793  0.34652  1.0000
  C   C32       1.0  0.43723  0.65534  0.37092  1.0000
  C   C33       1.0  0.45959  0.63380  0.37234  1.0000
  C   C34       1.0  0.43916  0.59028  0.35947  1.0000
  C   C35       1.0  0.39546  0.56872  0.34713  1.0000
  C   C36       1.0  0.37310  0.59024  0.34650  1.0000
  H   H22       1.0  0.17944  0.53423  0.38244  1.0000
  H   H23       1.0  0.45212  0.77335  0.33727  1.0000
  H   H24       1.0  0.48832  0.84741  0.33973  1.0000
  H   H25       1.0  0.45349  0.68691  0.38058  1.0000
  H   H26       1.0  0.49115  0.65029  0.38243  1.0000
  C   C37       1.0  0.37063  0.65582  0.35772  1.0000
  N   N5        1.0  0.39029  0.69819  0.35775  1.0000
  C   C38       1.0  0.36957  0.71989  0.35773  1.0000
  C   C39       1.0  0.30549  0.65475  0.35773  1.0000
  N   N6        1.0  0.32821  0.63509  0.35775  1.0000
  H   H27       1.0  0.25372  0.57189  0.38057  1.0000
  N   N7        1.0  0.46218  0.57185  0.36313  1.0000
  N   N8        1.0  0.12997  0.56320  0.36315  1.0000
  C   C40       1.0  0.76955  0.38888  0.35628  1.0000
  C   C41       1.0  0.63650  0.38574  0.35628  1.0000
  C   C42       1.0  0.79195  0.43303  0.35196  1.0000
  C   C43       1.0  0.83586  0.45562  0.35239  1.0000
  C   C44       1.0  0.85915  0.43505  0.35766  1.0000
  C   C45       1.0  0.57424  0.18832  0.36159  1.0000
  C   C46       1.0  0.59555  0.23219  0.36092  1.0000
  C   C47       1.0  0.59235  0.36399  0.35197  1.0000
  C   C48       1.0  0.56976  0.38532  0.35241  1.0000
  C   C49       1.0  0.59033  0.42918  0.35769  1.0000
  C   C50       1.0  0.63439  0.45114  0.36158  1.0000
  C   C51       1.0  0.65693  0.42983  0.36092  1.0000
  H   H28       1.0  0.85080  0.48747  0.34910  1.0000
  H   H29       1.0  0.57819  0.24662  0.36405  1.0000
  H   H30       1.0  0.54245  0.17280  0.36458  1.0000
  H   H31       1.0  0.57592  0.33217  0.34819  1.0000
  H   H32       1.0  0.53791  0.36840  0.34913  1.0000
  C   C52       1.0  0.65957  0.36424  0.35598  1.0000
  N   N9        1.0  0.64019  0.32188  0.35601  1.0000
  C   C53       1.0  0.66114  0.30040  0.35598  1.0000
  C   C54       1.0  0.72498  0.36581  0.35598  1.0000
  N   N10       1.0  0.70200  0.38519  0.35601  1.0000
  H   H33       1.0  0.77655  0.44946  0.34818  1.0000
  N   N11       1.0  0.56672  0.44708  0.35763  1.0000
  N   N12       1.0  0.90066  0.45866  0.35761  1.0000
  C   C55       1.0  0.51153  0.53506  0.42171  1.0000
  C   C56       1.0  0.54097  0.52163  0.43398  1.0000
  C   C57       1.0  0.54445  0.49608  0.36588  1.0000
  H   H34       1.0  0.50887  0.55322  0.47082  1.0000
  N   N13       1.0  0.56446  0.53345  0.51119  1.0000
  H   H35       1.0  0.56114  0.55042  0.55729  1.0000
  H   H36       1.0  0.58394  0.52390  0.52504  1.0000
  C   C58       1.0  0.57508  0.48493  0.36914  1.0000
  H   H37       1.0  0.60415  0.50723  0.38142  1.0000
  C   C59       1.0  0.49030  0.98155  0.42172  1.0000
  C   C60       1.0  0.50373  0.02442  0.43397  1.0000
  C   C61       1.0  0.52930  0.05344  0.36587  1.0000
  H   H38       1.0  0.47215  0.96074  0.47083  1.0000
  N   N14       1.0  0.49190  0.03610  0.51115  1.0000
  H   H39       1.0  0.47492  0.01580  0.55724  1.0000
  H   H40       1.0  0.50145  0.06513  0.52498  1.0000
  C   C62       1.0  0.54044  0.09523  0.36910  1.0000
  H   H41       1.0  0.51814  0.10199  0.38132  1.0000
  C   C63       1.0  0.04383  0.51385  0.42171  1.0000
  C   C64       1.0  0.00096  0.48441  0.43398  1.0000
  C   C65       1.0  0.97194  0.48093  0.36587  1.0000
  H   H42       1.0  0.06464  0.51651  0.47083  1.0000
  N   N15       1.0  0.98929  0.46092  0.51119  1.0000
  H   H43       1.0  0.00958  0.46425  0.55729  1.0000
  H   H44       1.0  0.96025  0.44144  0.52504  1.0000
  C   C66       1.0  0.93015  0.45030  0.36911  1.0000
  H   H45       1.0  0.92339  0.42123  0.38140  1.0000
