data_image0
_chemical_formula_structural       C2HNC2HNCNC4H2C8H4C8H4N12C2NCNCNCNCNCNCNCNCNCNCNCNCNCNCNCN6C8H4C8H4C8H4C8H4C8H4C8H4
_chemical_formula_sum              "C90 H36 N36"
_cell_length_a       30.2836
_cell_length_b       30.2836
_cell_length_c       14.8674
_cell_angle_alpha    90
_cell_angle_beta     90
_cell_angle_gamma    120

_space_group_name_H-M_alt    "P 1"
_space_group_IT_number       1

loop_
  _space_group_symop_operation_xyz
  'x, y, z'

loop_
  _atom_site_type_symbol
  _atom_site_label
  _atom_site_symmetry_multiplicity
  _atom_site_fract_x
  _atom_site_fract_y
  _atom_site_fract_z
  _atom_site_occupancy
  C   C1        1.0  0.03396  0.51805  0.31075  1.0000
  C   C2        1.0  0.03320  0.51764  0.14523  1.0000
  H   H1        1.0  0.05259  0.52732  0.08556  1.0000
  N   N1        1.0  0.03184  0.51703  0.47094  1.0000
  C   C3        1.0  0.06026  0.53121  0.39453  1.0000
  C   C4        1.0  0.06001  0.53105  0.22697  1.0000
  H   H2        1.0  0.09893  0.55051  0.22401  1.0000
  N   N2        1.0  0.13997  0.61036  0.39067  1.0000
  C   C5        1.0  0.11420  0.55821  0.40071  1.0000
  N   N3        1.0  0.13996  0.53183  0.39039  1.0000
  C   C6        1.0  0.95324  0.47774  0.39488  1.0000
  C   C7        1.0  0.97936  0.49076  0.31092  1.0000
  C   C8        1.0  0.97977  0.49093  0.14540  1.0000
  C   C9        1.0  0.95314  0.47763  0.22733  1.0000
  H   H3        1.0  0.96025  0.48115  0.08586  1.0000
  H   H4        1.0  0.91420  0.45817  0.22463  1.0000
  C   C10       1.0  0.53356  0.47780  0.39449  1.0000
  C   C11       1.0  0.52022  0.49072  0.31066  1.0000
  C   C12       1.0  0.49289  0.51798  0.31073  1.0000
  C   C13       1.0  0.47998  0.53126  0.39463  1.0000
  C   C14       1.0  0.47962  0.53089  0.22709  1.0000
  C   C15       1.0  0.49282  0.51740  0.14522  1.0000
  C   C16       1.0  0.51957  0.49072  0.14514  1.0000
  C   C17       1.0  0.53313  0.47752  0.22695  1.0000
  H   H5        1.0  0.46014  0.55034  0.22431  1.0000
  H   H6        1.0  0.48296  0.52702  0.08564  1.0000
  H   H7        1.0  0.52919  0.48091  0.08551  1.0000
  H   H8        1.0  0.55263  0.45810  0.22406  1.0000
  C   C18       1.0  0.53346  0.05802  0.39482  1.0000
  C   C19       1.0  0.52035  0.03177  0.31099  1.0000
  C   C20       1.0  0.49308  0.97717  0.31107  1.0000
  C   C21       1.0  0.48001  0.95099  0.39497  1.0000
  C   C22       1.0  0.48001  0.95100  0.22742  1.0000
  C   C23       1.0  0.49334  0.97768  0.14555  1.0000
  C   C24       1.0  0.52002  0.03111  0.14547  1.0000
  C   C25       1.0  0.53339  0.05787  0.22727  1.0000
  H   H9        1.0  0.46057  0.91207  0.22464  1.0000
  H   H10       1.0  0.48360  0.95820  0.08597  1.0000
  H   H11       1.0  0.52973  0.05054  0.08584  1.0000
  H   H12       1.0  0.55283  0.09680  0.22438  1.0000
  N   N4        1.0  0.26979  0.57294  0.31757  1.0000
  N   N5        1.0  0.31221  0.57293  0.31766  1.0000
  N   N6        1.0  0.43828  0.69909  0.31847  1.0000
  N   N7        1.0  0.43825  0.74149  0.31862  1.0000
  N   N8        1.0  0.31214  0.74163  0.31778  1.0000
  N   N9        1.0  0.26976  0.69917  0.31779  1.0000
  N   N10       1.0  0.74393  0.43624  0.31794  1.0000
  N   N11       1.0  0.70155  0.43631  0.31767  1.0000
  N   N12       1.0  0.57536  0.31006  0.31788  1.0000
  N   N13       1.0  0.57532  0.26762  0.31796  1.0000
  N   N14       1.0  0.70134  0.26749  0.31834  1.0000
  N   N15       1.0  0.74374  0.30992  0.31850  1.0000
  C   C26       1.0  0.19047  0.63677  0.36862  1.0000
  C   C27       1.0  0.19047  0.55593  0.36836  1.0000
  N   N16       1.0  0.21146  0.60685  0.35823  1.0000
  C   C28       1.0  0.37445  0.55590  0.36884  1.0000
  N   N17       1.0  0.40083  0.53175  0.39071  1.0000
  C   C29       1.0  0.45295  0.55817  0.40112  1.0000
  N   N18       1.0  0.47940  0.61033  0.39111  1.0000
  C   C30       1.0  0.45530  0.63676  0.36913  1.0000
  N   N19       1.0  0.40439  0.60682  0.35876  1.0000
  C   C31       1.0  0.45519  0.82073  0.36982  1.0000
  N   N20       1.0  0.47933  0.87129  0.39151  1.0000
  C   C32       1.0  0.45292  0.89705  0.40145  1.0000
  N   N21       1.0  0.40080  0.87134  0.39109  1.0000
  C   C33       1.0  0.37439  0.82082  0.36923  1.0000
  N   N22       1.0  0.40430  0.79979  0.35924  1.0000
  C   C34       1.0  0.82295  0.37219  0.36985  1.0000
  N   N23       1.0  0.87351  0.39857  0.39149  1.0000
  C   C35       1.0  0.89930  0.45072  0.40147  1.0000
  N   N24       1.0  0.87361  0.47718  0.39122  1.0000
  C   C36       1.0  0.82305  0.45306  0.36958  1.0000
  N   N25       1.0  0.80201  0.40214  0.35945  1.0000
  C   C37       1.0  0.63919  0.45326  0.36850  1.0000
  N   N26       1.0  0.61278  0.47735  0.39058  1.0000
  C   C38       1.0  0.56065  0.45094  0.40080  1.0000
  N   N27       1.0  0.53424  0.39880  0.39056  1.0000
  C   C39       1.0  0.55835  0.37240  0.36852  1.0000
  N   N28       1.0  0.60926  0.40234  0.35823  1.0000
  C   C40       1.0  0.55817  0.18828  0.36897  1.0000
  N   N29       1.0  0.53399  0.13775  0.39083  1.0000
  C   C41       1.0  0.56035  0.11197  0.40114  1.0000
  N   N30       1.0  0.61251  0.13766  0.39108  1.0000
  C   C42       1.0  0.63897  0.18817  0.36907  1.0000
  N   N31       1.0  0.60908  0.20919  0.35878  1.0000
  N   N32       1.0  0.98182  0.49204  0.47110  1.0000
  N   N33       1.0  0.49448  0.51722  0.47090  1.0000
  N   N34       1.0  0.51953  0.49224  0.47083  1.0000
  N   N35       1.0  0.49424  0.97954  0.47124  1.0000
  N   N36       1.0  0.51923  0.02955  0.47117  1.0000
  C   C43       1.0  0.32137  0.53927  0.36217  1.0000
  C   C44       1.0  0.27741  0.49795  0.40303  1.0000
  C   C45       1.0  0.22952  0.49797  0.40293  1.0000
  C   C46       1.0  0.22693  0.53930  0.36197  1.0000
  C   C47       1.0  0.18761  0.45937  0.45086  1.0000
  C   C48       1.0  0.19181  0.42111  0.49684  1.0000
  C   C49       1.0  0.23814  0.42111  0.49697  1.0000
  C   C50       1.0  0.28065  0.45935  0.45106  1.0000
  H   H13       1.0  0.15353  0.45855  0.45330  1.0000
  H   H14       1.0  0.16121  0.39353  0.53134  1.0000
  H   H15       1.0  0.24110  0.39352  0.53152  1.0000
  H   H16       1.0  0.31390  0.45852  0.45366  1.0000
  C   C51       1.0  0.47180  0.78426  0.36336  1.0000
  C   C52       1.0  0.51317  0.78166  0.40408  1.0000
  C   C53       1.0  0.51319  0.73377  0.40394  1.0000
  C   C54       1.0  0.47185  0.68984  0.36306  1.0000
  C   C55       1.0  0.55180  0.73048  0.45188  1.0000
  C   C56       1.0  0.59004  0.77294  0.49791  1.0000
  C   C57       1.0  0.59001  0.81926  0.49805  1.0000
  C   C58       1.0  0.55175  0.82351  0.45218  1.0000
  H   H17       1.0  0.55262  0.69722  0.45434  1.0000
  H   H18       1.0  0.61761  0.76993  0.53243  1.0000
  H   H19       1.0  0.61756  0.84981  0.53269  1.0000
  H   H20       1.0  0.55252  0.85756  0.45486  1.0000
  C   C59       1.0  0.22696  0.68987  0.36252  1.0000
  C   C60       1.0  0.22952  0.73375  0.40355  1.0000
  C   C61       1.0  0.27738  0.78168  0.40361  1.0000
  C   C62       1.0  0.32131  0.78443  0.36239  1.0000
  C   C63       1.0  0.28066  0.82347  0.45189  1.0000
  C   C64       1.0  0.23820  0.81912  0.49810  1.0000
  C   C65       1.0  0.19189  0.77276  0.49803  1.0000
  C   C66       1.0  0.18766  0.73037  0.45177  1.0000
  H   H21       1.0  0.31389  0.85757  0.45442  1.0000
  H   H22       1.0  0.24118  0.84964  0.53280  1.0000
  H   H23       1.0  0.16132  0.76969  0.53271  1.0000
  H   H24       1.0  0.15361  0.69708  0.45429  1.0000
  C   C67       1.0  0.69229  0.46993  0.36209  1.0000
  C   C68       1.0  0.73615  0.51111  0.40347  1.0000
  C   C69       1.0  0.78402  0.51106  0.40373  1.0000
  C   C70       1.0  0.78669  0.46979  0.36271  1.0000
  C   C71       1.0  0.82580  0.54950  0.45216  1.0000
  C   C72       1.0  0.82149  0.58766  0.49830  1.0000
  C   C73       1.0  0.77519  0.58771  0.49808  1.0000
  C   C74       1.0  0.73281  0.54961  0.45167  1.0000
  H   H25       1.0  0.85985  0.55027  0.45487  1.0000
  H   H26       1.0  0.85200  0.61514  0.53313  1.0000
  H   H27       1.0  0.77214  0.61523  0.53271  1.0000
  H   H28       1.0  0.69957  0.55048  0.45400  1.0000
  C   C75       1.0  0.54160  0.22478  0.36236  1.0000
  C   C76       1.0  0.50027  0.22744  0.40313  1.0000
  C   C77       1.0  0.50033  0.27537  0.40305  1.0000
  C   C78       1.0  0.54170  0.31930  0.36219  1.0000
  C   C79       1.0  0.46170  0.27868  0.45085  1.0000
  C   C80       1.0  0.42337  0.23621  0.49671  1.0000
  C   C81       1.0  0.42333  0.18986  0.49682  1.0000
  C   C82       1.0  0.46160  0.18558  0.45103  1.0000
  H   H29       1.0  0.46090  0.31195  0.45329  1.0000
  H   H30       1.0  0.39577  0.23923  0.53112  1.0000
  H   H31       1.0  0.39569  0.15929  0.53128  1.0000
  H   H32       1.0  0.46074  0.15148  0.45360  1.0000
  C   C83       1.0  0.78649  0.31911  0.36330  1.0000
  C   C84       1.0  0.78387  0.27513  0.40404  1.0000
  C   C85       1.0  0.73597  0.22723  0.40388  1.0000
  C   C86       1.0  0.69206  0.22467  0.36296  1.0000
  C   C87       1.0  0.73265  0.18533  0.45183  1.0000
  C   C88       1.0  0.77509  0.18953  0.49791  1.0000
  C   C89       1.0  0.82142  0.23587  0.49808  1.0000
  C   C90       1.0  0.82569  0.27838  0.45218  1.0000
  H   H33       1.0  0.69938  0.15125  0.45428  1.0000
  H   H34       1.0  0.77205  0.15894  0.53245  1.0000
  H   H35       1.0  0.85195  0.23885  0.53275  1.0000
  H   H36       1.0  0.85976  0.31166  0.45488  1.0000
