data_image0
_chemical_formula_structural       C5H2OHC2H2OHCH2OHCNCNCNC18H12CNCNCNC18H12C4NC2NOHCOC4NC2NOHCOC3NCNOHCO
_chemical_formula_sum              "C69 H36 O9 N12"
_cell_length_a       29.4912
_cell_length_b       29.4914
_cell_length_c       14.9532
_cell_angle_alpha    90
_cell_angle_beta     90
_cell_angle_gamma    120

_space_group_name_H-M_alt    "P 1"
_space_group_IT_number       1

loop_
  _space_group_symop_operation_xyz
  'x, y, z'

loop_
  _atom_site_type_symbol
  _atom_site_label
  _atom_site_symmetry_multiplicity
  _atom_site_fract_x
  _atom_site_fract_y
  _atom_site_fract_z
  _atom_site_occupancy
  C   C1        1.0  0.02966  0.52437  0.26239  1.0000
  C   C2        1.0  0.03070  0.51225  0.42428  1.0000
  C   C3        1.0  0.02862  0.50205  0.58396  1.0000
  C   C4        1.0  0.49735  0.52720  0.26254  1.0000
  C   C5        1.0  0.52494  0.49981  0.26217  1.0000
  H   H1        1.0  0.53892  0.49463  0.20265  1.0000
  H   H2        1.0  0.49201  0.54120  0.20313  1.0000
  O   O1        1.0  0.48093  0.42574  0.04298  1.0000
  H   H3        1.0  0.44767  0.41759  0.04194  1.0000
  C   C6        1.0  0.48010  0.97754  0.26268  1.0000
  C   C7        1.0  0.50749  0.03253  0.26383  1.0000
  H   H4        1.0  0.51289  0.05223  0.20485  1.0000
  H   H5        1.0  0.46634  0.95876  0.20277  1.0000
  O   O2        1.0  0.58010  0.05883  0.04469  1.0000
  H   H6        1.0  0.58829  0.03376  0.04299  1.0000
  C   C8        1.0  0.97467  0.49697  0.26273  1.0000
  H   H7        1.0  0.95527  0.49182  0.20350  1.0000
  H   H8        1.0  0.04873  0.53838  0.20277  1.0000
  O   O3        1.0  0.94652  0.42394  0.04392  1.0000
  H   H9        1.0  0.97162  0.41577  0.04262  1.0000
  C   C9        1.0  0.36245  0.72528  0.33000  1.0000
  N   N1        1.0  0.38810  0.69769  0.33121  1.0000
  C   C10       1.0  0.36301  0.64446  0.33223  1.0000
  N   N2        1.0  0.30975  0.61877  0.33247  1.0000
  C   C11       1.0  0.28162  0.64388  0.33113  1.0000
  N   N3        1.0  0.30921  0.69713  0.32999  1.0000
  C   C12       1.0  0.39135  0.61689  0.33377  1.0000
  C   C13       1.0  0.44658  0.64358  0.32389  1.0000
  C   C14       1.0  0.47463  0.61654  0.32582  1.0000
  C   C15       1.0  0.44829  0.56182  0.33860  1.0000
  C   C16       1.0  0.39333  0.53468  0.34825  1.0000
  C   C17       1.0  0.36537  0.56181  0.34555  1.0000
  C   C18       1.0  0.39008  0.78119  0.33063  1.0000
  C   C19       1.0  0.44516  0.81024  0.34236  1.0000
  C   C20       1.0  0.47230  0.86531  0.34558  1.0000
  C   C21       1.0  0.44516  0.89317  0.33650  1.0000
  C   C22       1.0  0.39047  0.86485  0.32343  1.0000
  C   C23       1.0  0.36341  0.80976  0.32098  1.0000
  C   C24       1.0  0.22570  0.61573  0.33220  1.0000
  C   C25       1.0  0.19664  0.64187  0.32204  1.0000
  C   C26       1.0  0.14155  0.61431  0.32418  1.0000
  C   C27       1.0  0.11369  0.55963  0.33747  1.0000
  C   C28       1.0  0.14204  0.53303  0.34724  1.0000
  C   C29       1.0  0.19712  0.56066  0.34431  1.0000
  H   H10       1.0  0.51199  0.88492  0.35520  1.0000
  H   H11       1.0  0.46633  0.79164  0.35020  1.0000
  H   H12       1.0  0.36980  0.88409  0.31717  1.0000
  H   H13       1.0  0.32370  0.79078  0.31222  1.0000
  H   H14       1.0  0.21524  0.68153  0.31290  1.0000
  H   H15       1.0  0.12195  0.63460  0.31738  1.0000
  H   H16       1.0  0.21609  0.53988  0.35243  1.0000
  H   H17       1.0  0.12277  0.49334  0.35693  1.0000
  H   H18       1.0  0.32561  0.54063  0.35337  1.0000
  H   H19       1.0  0.37326  0.49497  0.35754  1.0000
  H   H20       1.0  0.51452  0.63720  0.31903  1.0000
  H   H21       1.0  0.46729  0.68328  0.31493  1.0000
  C   C30       1.0  0.64162  0.28381  0.34105  1.0000
  N   N4        1.0  0.61648  0.31190  0.33915  1.0000
  C   C31       1.0  0.64221  0.36513  0.33717  1.0000
  N   N5        1.0  0.69544  0.39027  0.33694  1.0000
  C   C32       1.0  0.72297  0.36455  0.33909  1.0000
  N   N6        1.0  0.69489  0.31132  0.34133  1.0000
  C   C33       1.0  0.61461  0.39339  0.33674  1.0000
  C   C34       1.0  0.56036  0.36824  0.35655  1.0000
  C   C35       1.0  0.53334  0.39630  0.35849  1.0000
  C   C36       1.0  0.55955  0.45039  0.33919  1.0000
  C   C37       1.0  0.61339  0.47575  0.31807  1.0000
  C   C38       1.0  0.64051  0.44776  0.31768  1.0000
  C   C39       1.0  0.61327  0.22794  0.34209  1.0000
  C   C40       1.0  0.55897  0.19945  0.32247  1.0000
  C   C41       1.0  0.53107  0.14435  0.32221  1.0000
  C   C42       1.0  0.55644  0.11586  0.34315  1.0000
  C   C43       1.0  0.61043  0.14377  0.36343  1.0000
  C   C44       1.0  0.63841  0.19887  0.36216  1.0000
  C   C45       1.0  0.77885  0.39231  0.33933  1.0000
  C   C46       1.0  0.80745  0.36673  0.35978  1.0000
  C   C47       1.0  0.86255  0.39425  0.36128  1.0000
  C   C48       1.0  0.89094  0.44821  0.34094  1.0000
  C   C49       1.0  0.86292  0.47399  0.31940  1.0000
  C   C50       1.0  0.80782  0.44656  0.31942  1.0000
  H   H22       1.0  0.49189  0.12516  0.30775  1.0000
  H   H23       1.0  0.53900  0.21849  0.30695  1.0000
  H   H24       1.0  0.62991  0.12415  0.37844  1.0000
  H   H25       1.0  0.67746  0.21750  0.37726  1.0000
  H   H26       1.0  0.78848  0.32771  0.37516  1.0000
  H   H27       1.0  0.88183  0.37448  0.37676  1.0000
  H   H28       1.0  0.78913  0.46685  0.30377  1.0000
  H   H29       1.0  0.88244  0.51319  0.30503  1.0000
  H   H30       1.0  0.67958  0.46775  0.30263  1.0000
  H   H31       1.0  0.63349  0.51503  0.30443  1.0000
  H   H32       1.0  0.49425  0.37683  0.37371  1.0000
  H   H33       1.0  0.53988  0.32916  0.37152  1.0000
  C   C51       1.0  0.53232  0.47875  0.34193  1.0000
  C   C52       1.0  0.51238  0.48679  0.42292  1.0000
  C   C53       1.0  0.48459  0.51478  0.42446  1.0000
  C   C54       1.0  0.47658  0.53461  0.34279  1.0000
  N   N7        1.0  0.46794  0.52223  0.50597  1.0000
  C   C55       1.0  0.47674  0.50416  0.58410  1.0000
  C   C56       1.0  0.50414  0.47633  0.58258  1.0000
  N   N8        1.0  0.52076  0.46929  0.50186  1.0000
  O   O4        1.0  0.46028  0.51452  0.66209  1.0000
  H   H34       1.0  0.44968  0.54197  0.51000  1.0000
  C   C57       1.0  0.51559  0.45764  0.65949  1.0000
  O   O5        1.0  0.55701  0.45766  0.66314  1.0000
  C   C58       1.0  0.52821  0.06024  0.34435  1.0000
  C   C59       1.0  0.51982  0.03149  0.42454  1.0000
  C   C60       1.0  0.49182  0.97571  0.42457  1.0000
  C   C61       1.0  0.47233  0.94862  0.34215  1.0000
  N   N9        1.0  0.48402  0.95087  0.50541  1.0000
  C   C62       1.0  0.50173  0.97700  0.58424  1.0000
  C   C63       1.0  0.52955  0.03224  0.58422  1.0000
  N   N10       1.0  0.53697  0.05664  0.50415  1.0000
  O   O6        1.0  0.49108  0.94948  0.66151  1.0000
  H   H35       1.0  0.46424  0.91282  0.50843  1.0000
  C   C64       1.0  0.54793  0.06160  0.66203  1.0000
  O   O7        1.0  0.54771  0.10289  0.66629  1.0000
  C   C65       1.0  0.94656  0.47609  0.34286  1.0000
  C   C66       1.0  0.97491  0.48425  0.42345  1.0000
  C   C67       1.0  0.05820  0.53199  0.34227  1.0000
  N   N11       1.0  0.05514  0.51992  0.50550  1.0000
  C   C68       1.0  0.97339  0.47420  0.58314  1.0000
  N   N12       1.0  0.94939  0.46697  0.50272  1.0000
  O   O8        1.0  0.05577  0.51263  0.66163  1.0000
  H   H36       1.0  0.09317  0.53972  0.50907  1.0000
  C   C69       1.0  0.94358  0.45573  0.66043  1.0000
  O   O9        1.0  0.90220  0.45577  0.66455  1.0000
