data_image0
_chemical_formula_structural       CHC4H4CH4C3H2C2H3NHC3H2C2H3NHC2HCH3NHC29H17C3O3C29H17C3O3C3NC2NC2HNHC3NC2NC2HNHC2NCNC2HNH
_chemical_formula_sum              "C102 H66 N12 O6"
_cell_length_a       45.0269
_cell_length_b       45.0269
_cell_length_c       14.9758
_cell_angle_alpha    90
_cell_angle_beta     90
_cell_angle_gamma    120

_space_group_name_H-M_alt    "P 1"
_space_group_IT_number       1

loop_
  _space_group_symop_operation_xyz
  'x, y, z'

loop_
  _atom_site_type_symbol
  _atom_site_label
  _atom_site_symmetry_multiplicity
  _atom_site_fract_x
  _atom_site_fract_y
  _atom_site_fract_z
  _atom_site_occupancy
  C   C1        1.0  0.01591  0.52270  0.25793  1.0000
  H   H1        1.0  0.02615  0.53235  0.19651  1.0000
  C   C2        1.0  0.02259  0.51233  0.41397  1.0000
  C   C3        1.0  0.03456  0.48605  0.05327  1.0000
  C   C4        1.0  0.02858  0.49972  0.56593  1.0000
  C   C5        1.0  0.41553  0.85594  0.32164  1.0000
  H   H2        1.0  0.40530  0.87172  0.31818  1.0000
  H   H3        1.0  0.36808  0.81176  0.29658  1.0000
  H   H4        1.0  0.46803  0.59672  0.31817  1.0000
  H   H5        1.0  0.13029  0.53399  0.31815  1.0000
  C   C6        1.0  0.60030  0.14722  0.35322  1.0000
  H   H6        1.0  0.61213  0.13298  0.36005  1.0000
  H   H7        1.0  0.64559  0.19354  0.37975  1.0000
  H   H8        1.0  0.52245  0.38987  0.36003  1.0000
  H   H9        1.0  0.86904  0.47957  0.36007  1.0000
  C   C7        1.0  0.47601  0.51202  0.32990  1.0000
  C   C8        1.0  0.47932  0.49362  0.25794  1.0000
  C   C9        1.0  0.49521  0.47380  0.26947  1.0000
  H   H10       1.0  0.49664  0.46034  0.21619  1.0000
  H   H11       1.0  0.46967  0.49421  0.19652  1.0000
  C   C10       1.0  0.51597  0.54890  0.05329  1.0000
  C   C11       1.0  0.53205  0.52918  0.06463  1.0000
  H   H12       1.0  0.51527  0.56334  0.10506  1.0000
  H   H13       1.0  0.54306  0.52942  0.12454  1.0000
  H   H14       1.0  0.54486  0.49498  0.00237  1.0000
  N   N1        1.0  0.46193  0.53241  0.31487  1.0000
  H   H15       1.0  0.47030  0.54739  0.26276  1.0000
  C   C12       1.0  0.49001  0.96440  0.32987  1.0000
  C   C13       1.0  0.50840  0.98611  0.25792  1.0000
  C   C14       1.0  0.52821  0.02182  0.26946  1.0000
  H   H16       1.0  0.54168  0.03672  0.21619  1.0000
  H   H17       1.0  0.50782  0.97588  0.19650  1.0000
  C   C15       1.0  0.45311  0.96745  0.05326  1.0000
  C   C16       1.0  0.47282  0.00325  0.06462  1.0000
  H   H18       1.0  0.43867  0.95230  0.10503  1.0000
  H   H19       1.0  0.47258  0.01401  0.12453  1.0000
  H   H20       1.0  0.50701  0.05025  0.00238  1.0000
  N   N2        1.0  0.46963  0.92993  0.31481  1.0000
  H   H21       1.0  0.45463  0.92331  0.26274  1.0000
  C   C17       1.0  0.03762  0.52601  0.32988  1.0000
  C   C18       1.0  0.98020  0.50680  0.26947  1.0000
  H   H22       1.0  0.96531  0.50538  0.21620  1.0000
  C   C19       1.0  0.99876  0.46997  0.06463  1.0000
  H   H23       1.0  0.04970  0.48676  0.10504  1.0000
  H   H24       1.0  0.98799  0.45897  0.12454  1.0000
  H   H25       1.0  0.95176  0.45716  0.00238  1.0000
  N   N3        1.0  0.07209  0.54008  0.31485  1.0000
  H   H26       1.0  0.07869  0.53171  0.26274  1.0000
  C   C20       1.0  0.45067  0.86936  0.34187  1.0000
  C   C21       1.0  0.46297  0.84604  0.34917  1.0000
  C   C22       1.0  0.44102  0.81063  0.33619  1.0000
  C   C23       1.0  0.40579  0.79725  0.31752  1.0000
  C   C24       1.0  0.39347  0.82050  0.30954  1.0000
  C   C25       1.0  0.38331  0.76228  0.30643  1.0000
  C   C26       1.0  0.38162  0.73810  0.36238  1.0000
  C   C27       1.0  0.35826  0.70333  0.35378  1.0000
  C   C28       1.0  0.32253  0.69091  0.35444  1.0000
  C   C29       1.0  0.29870  0.65534  0.35390  1.0000
  C   C30       1.0  0.31111  0.63203  0.35449  1.0000
  C   C31       1.0  0.34668  0.64376  0.35389  1.0000
  C   C32       1.0  0.36999  0.67948  0.35440  1.0000
  C   C33       1.0  0.35809  0.62040  0.36248  1.0000
  C   C34       1.0  0.38058  0.61871  0.30651  1.0000
  C   C35       1.0  0.39308  0.59624  0.31758  1.0000
  C   C36       1.0  0.42864  0.60856  0.30959  1.0000
  C   C37       1.0  0.37122  0.56101  0.33627  1.0000
  C   C38       1.0  0.38469  0.53906  0.34926  1.0000
  C   C39       1.0  0.42031  0.55136  0.34191  1.0000
  C   C40       1.0  0.44202  0.58649  0.32158  1.0000
  C   C41       1.0  0.26392  0.64393  0.36248  1.0000
  C   C42       1.0  0.23974  0.62143  0.30653  1.0000
  C   C43       1.0  0.20477  0.60894  0.31759  1.0000
  C   C44       1.0  0.19140  0.63079  0.33626  1.0000
  C   C45       1.0  0.18152  0.57337  0.30961  1.0000
  C   C46       1.0  0.14608  0.56000  0.32162  1.0000
  C   C47       1.0  0.13266  0.58171  0.34186  1.0000
  C   C48       1.0  0.15599  0.61733  0.34920  1.0000
  H   H27       1.0  0.48825  0.85465  0.36307  1.0000
  H   H28       1.0  0.45101  0.79466  0.34114  1.0000
  H   H29       1.0  0.39582  0.68823  0.35781  1.0000
  H   H30       1.0  0.31378  0.70799  0.35781  1.0000
  H   H31       1.0  0.29403  0.60619  0.35790  1.0000
  H   H32       1.0  0.20736  0.65675  0.34120  1.0000
  H   H33       1.0  0.44529  0.63394  0.29655  1.0000
  H   H34       1.0  0.36803  0.51378  0.36318  1.0000
  H   H35       1.0  0.34527  0.55101  0.34122  1.0000
  H   H36       1.0  0.14737  0.63400  0.36310  1.0000
  H   H37       1.0  0.19026  0.55672  0.29658  1.0000
  H   H38       1.0  0.39005  0.63536  0.25617  1.0000
  H   H39       1.0  0.34892  0.60419  0.41374  1.0000
  H   H40       1.0  0.36665  0.75512  0.25615  1.0000
  H   H41       1.0  0.39785  0.74513  0.41361  1.0000
  H   H42       1.0  0.24692  0.61195  0.25621  1.0000
  H   H43       1.0  0.25688  0.65310  0.41373  1.0000
  C   C49       1.0  0.09698  0.56815  0.35815  1.0000
  C   C50       1.0  0.43389  0.52926  0.35824  1.0000
  C   C51       1.0  0.47278  0.90504  0.35817  1.0000
  O   O1        1.0  0.41716  0.50330  0.41738  1.0000
  O   O2        1.0  0.49872  0.91427  0.41737  1.0000
  O   O3        1.0  0.08775  0.58487  0.41735  1.0000
  C   C52       1.0  0.56521  0.13136  0.32961  1.0000
  C   C53       1.0  0.55060  0.15257  0.31803  1.0000
  C   C54       1.0  0.57028  0.18830  0.33007  1.0000
  C   C55       1.0  0.60553  0.20417  0.35192  1.0000
  C   C56       1.0  0.62013  0.18301  0.36419  1.0000
  C   C57       1.0  0.62579  0.23953  0.36250  1.0000
  C   C58       1.0  0.62559  0.26264  0.30585  1.0000
  C   C59       1.0  0.64660  0.29786  0.31462  1.0000
  C   C60       1.0  0.68272  0.31311  0.31399  1.0000
  C   C61       1.0  0.70416  0.34915  0.31459  1.0000
  C   C62       1.0  0.68891  0.37002  0.31402  1.0000
  C   C63       1.0  0.65287  0.35542  0.31460  1.0000
  C   C64       1.0  0.63200  0.31930  0.31404  1.0000
  C   C65       1.0  0.63865  0.37642  0.30583  1.0000
  C   C66       1.0  0.61535  0.37623  0.36249  1.0000
  C   C67       1.0  0.60024  0.39648  0.35192  1.0000
  C   C68       1.0  0.56448  0.38188  0.36419  1.0000
  C   C69       1.0  0.61962  0.43173  0.33006  1.0000
  C   C70       1.0  0.60357  0.45141  0.31802  1.0000
  C   C71       1.0  0.56775  0.43680  0.32959  1.0000
  C   C72       1.0  0.54852  0.40171  0.35323  1.0000
  C   C73       1.0  0.73939  0.36337  0.30581  1.0000
  C   C74       1.0  0.76249  0.38667  0.36248  1.0000
  C   C75       1.0  0.79785  0.40178  0.35189  1.0000
  C   C76       1.0  0.81372  0.38240  0.33004  1.0000
  C   C77       1.0  0.81901  0.43754  0.36414  1.0000
  C   C78       1.0  0.85480  0.45350  0.35320  1.0000
  C   C79       1.0  0.87066  0.43427  0.32960  1.0000
  C   C80       1.0  0.84945  0.39845  0.31803  1.0000
  H   H44       1.0  0.52523  0.14215  0.30192  1.0000
  H   H45       1.0  0.55859  0.20265  0.32224  1.0000
  H   H46       1.0  0.60586  0.30848  0.31059  1.0000
  H   H47       1.0  0.69354  0.29778  0.31057  1.0000
  H   H48       1.0  0.70424  0.39617  0.31055  1.0000
  H   H49       1.0  0.79938  0.35636  0.32220  1.0000
  H   H50       1.0  0.54956  0.35642  0.37975  1.0000
  H   H51       1.0  0.61852  0.47678  0.30189  1.0000
  H   H52       1.0  0.64566  0.44342  0.32223  1.0000
  H   H53       1.0  0.85988  0.38350  0.30188  1.0000
  H   H54       1.0  0.80848  0.45245  0.37977  1.0000
  H   H55       1.0  0.60738  0.35981  0.41344  1.0000
  H   H56       1.0  0.64642  0.39241  0.25401  1.0000
  H   H57       1.0  0.64222  0.24798  0.41343  1.0000
  H   H58       1.0  0.60960  0.25443  0.25404  1.0000
  H   H59       1.0  0.75404  0.39464  0.41343  1.0000
  H   H60       1.0  0.74760  0.35560  0.25400  1.0000
  C   C81       1.0  0.90672  0.45040  0.31487  1.0000
  C   C82       1.0  0.55161  0.45671  0.31486  1.0000
  C   C83       1.0  0.54529  0.09531  0.31488  1.0000
  O   O4        1.0  0.56574  0.48209  0.25313  1.0000
  O   O5        1.0  0.51991  0.08405  0.25316  1.0000
  O   O6        1.0  0.91797  0.43627  0.25316  1.0000
  C   C84       1.0  0.50892  0.47222  0.35305  1.0000
  C   C85       1.0  0.50578  0.49060  0.42564  1.0000
  C   C86       1.0  0.48968  0.51065  0.41397  1.0000
  N   N4        1.0  0.48886  0.52918  0.48479  1.0000
  C   C87       1.0  0.50230  0.52925  0.56595  1.0000
  C   C88       1.0  0.51828  0.50922  0.57756  1.0000
  N   N5        1.0  0.51940  0.49090  0.50700  1.0000
  C   C89       1.0  0.50104  0.54893  0.63737  1.0000
  C   C90       1.0  0.53307  0.50919  0.66038  1.0000
  H   H61       1.0  0.48959  0.56348  0.62937  1.0000
  N   N6        1.0  0.52423  0.45266  0.36355  1.0000
  H   H62       1.0  0.51777  0.43807  0.41634  1.0000
  C   C91       1.0  0.52979  0.03712  0.35306  1.0000
  C   C92       1.0  0.51141  0.01558  0.42563  1.0000
  C   C93       1.0  0.49136  0.97943  0.41395  1.0000
  N   N7        1.0  0.47284  0.96007  0.48475  1.0000
  C   C94       1.0  0.47276  0.97343  0.56592  1.0000
  C   C95       1.0  0.49278  0.00944  0.57756  1.0000
  N   N8        1.0  0.51110  0.02890  0.50700  1.0000
  C   C96       1.0  0.45308  0.95248  0.63734  1.0000
  C   C97       1.0  0.49281  0.02427  0.66038  1.0000
  H   H63       1.0  0.43854  0.92649  0.62933  1.0000
  N   N9        1.0  0.54934  0.07197  0.36356  1.0000
  H   H64       1.0  0.56393  0.08010  0.41636  1.0000
  C   C98       1.0  0.96490  0.49309  0.35306  1.0000
  C   C99       1.0  0.98644  0.49624  0.42564  1.0000
  N   N10       1.0  0.04195  0.51317  0.48477  1.0000
  C   C100      1.0  0.99257  0.48375  0.57756  1.0000
  N   N11       1.0  0.97312  0.48262  0.50701  1.0000
  C   C101      1.0  0.04953  0.50099  0.63735  1.0000
  C   C102      1.0  0.97774  0.46895  0.66038  1.0000
  H   H65       1.0  0.07552  0.51244  0.62934  1.0000
  N   N12       1.0  0.93005  0.47779  0.36356  1.0000
  H   H66       1.0  0.92192  0.48425  0.41636  1.0000
