data_image0
_chemical_formula_structural       C8H8C4H3CH3CHC4H3CH3CHC3NC3NC5NC5NC20H18N4C3H2CHC3H2CH
_chemical_formula_sum              "C64 H46 N8"
_cell_length_a       25.8571
_cell_length_b       25.855
_cell_length_c       14.7821
_cell_angle_alpha    90
_cell_angle_beta     90
_cell_angle_gamma    90.0299

_space_group_name_H-M_alt    "P 1"
_space_group_IT_number       1

loop_
  _space_group_symop_operation_xyz
  'x, y, z'

loop_
  _atom_site_type_symbol
  _atom_site_label
  _atom_site_symmetry_multiplicity
  _atom_site_fract_x
  _atom_site_fract_y
  _atom_site_fract_z
  _atom_site_occupancy
  C   C1        1.0  0.23065  0.99918  0.29683  1.0000
  C   C2        1.0  0.28523  0.00070  0.29642  1.0000
  C   C3        1.0  0.99962  0.78890  0.29628  1.0000
  C   C4        1.0  0.00094  0.73430  0.29569  1.0000
  C   C5        1.0  0.73695  0.02835  0.28551  1.0000
  C   C6        1.0  0.79142  0.02581  0.28883  1.0000
  C   C7        1.0  0.02646  0.22792  0.28977  1.0000
  C   C8        1.0  0.02929  0.28237  0.28628  1.0000
  H   H1        1.0  0.04164  0.29962  0.22780  1.0000
  H   H2        1.0  0.03715  0.20710  0.23391  1.0000
  H   H3        1.0  0.81213  0.03662  0.23290  1.0000
  H   H4        1.0  0.71959  0.04063  0.22709  1.0000
  H   H5        1.0  0.99115  0.80804  0.23751  1.0000
  H   H6        1.0  0.99368  0.71560  0.23614  1.0000
  H   H7        1.0  0.30401  0.99370  0.23684  1.0000
  H   H8        1.0  0.21159  0.99074  0.23796  1.0000
  C   C9        1.0  0.00611  0.56474  0.33936  1.0000
  C   C10       1.0  0.01756  0.53061  0.26581  1.0000
  C   C11       1.0  0.01085  0.47561  0.27609  1.0000
  C   C12       1.0  0.03636  0.55234  0.17759  1.0000
  H   H9        1.0  0.04831  0.59273  0.18172  1.0000
  H   H10       1.0  0.00597  0.54956  0.12665  1.0000
  H   H11       1.0  0.07026  0.53103  0.15433  1.0000
  C   C13       1.0  0.01461  0.44165  0.19408  1.0000
  H   H12       1.0  0.99802  0.40335  0.20295  1.0000
  H   H13       1.0  0.05508  0.43714  0.17481  1.0000
  H   H14       1.0  0.99339  0.45851  0.13756  1.0000
  C   C14       1.0  0.99850  0.61798  0.32664  1.0000
  H   H15       1.0  0.97706  0.62830  0.27386  1.0000
  C   C15       1.0  0.45455  0.00555  0.34049  1.0000
  C   C16       1.0  0.48853  0.01706  0.26674  1.0000
  C   C17       1.0  0.54354  0.01038  0.27662  1.0000
  C   C18       1.0  0.46657  0.03589  0.17871  1.0000
  H   H16       1.0  0.42617  0.04766  0.18309  1.0000
  H   H17       1.0  0.46936  0.00559  0.12762  1.0000
  H   H18       1.0  0.48774  0.06992  0.15548  1.0000
  C   C19       1.0  0.57727  0.01425  0.19433  1.0000
  H   H19       1.0  0.61569  0.99794  0.20292  1.0000
  H   H20       1.0  0.58151  0.05473  0.17485  1.0000
  H   H21       1.0  0.56037  0.99285  0.13806  1.0000
  C   C20       1.0  0.40135  0.99777  0.32804  1.0000
  H   H22       1.0  0.39100  0.97599  0.27568  1.0000
  C   C21       1.0  0.10633  0.14360  0.37658  1.0000
  C   C22       1.0  0.14407  0.10584  0.37676  1.0000
  C   C23       1.0  0.11997  0.05746  0.37639  1.0000
  N   N1        1.0  0.06843  0.06803  0.37505  1.0000
  C   C24       1.0  0.05789  0.11958  0.37460  1.0000
  C   C25       1.0  0.00952  0.14630  0.37321  1.0000
  C   C26       1.0  0.96057  0.12085  0.37344  1.0000
  N   N2        1.0  0.95026  0.06938  0.37398  1.0000
  C   C27       1.0  0.89881  0.05905  0.37315  1.0000
  C   C28       1.0  0.87459  0.10736  0.37303  1.0000
  C   C29       1.0  0.91237  0.14515  0.37202  1.0000
  C   C30       1.0  0.87326  0.01009  0.37256  1.0000
  C   C31       1.0  0.89988  0.96163  0.37348  1.0000
  N   N3        1.0  0.95144  0.95104  0.37550  1.0000
  C   C32       1.0  0.96213  0.89949  0.37483  1.0000
  C   C33       1.0  0.91375  0.87540  0.37302  1.0000
  C   C34       1.0  0.87593  0.91317  0.37119  1.0000
  C   C35       1.0  0.01060  0.87292  0.37597  1.0000
  C   C36       1.0  0.05956  0.89837  0.37618  1.0000
  N   N4        1.0  0.06979  0.94982  0.37618  1.0000
  C   C37       1.0  0.12124  0.96011  0.37583  1.0000
  C   C38       1.0  0.14561  0.91192  0.37578  1.0000
  C   C39       1.0  0.10783  0.87411  0.37526  1.0000
  C   C40       1.0  0.14661  0.00907  0.37643  1.0000
  C   C41       1.0  0.20232  0.00965  0.37662  1.0000
  C   C42       1.0  0.31363  0.01285  0.37571  1.0000
  C   C43       1.0  0.28514  0.02388  0.45500  1.0000
  C   C44       1.0  0.23054  0.02197  0.45579  1.0000
  C   C45       1.0  0.01043  0.81716  0.37604  1.0000
  C   C46       1.0  0.01326  0.70577  0.37476  1.0000
  C   C47       1.0  0.02464  0.73418  0.45400  1.0000
  C   C48       1.0  0.02294  0.78879  0.45496  1.0000
  C   C49       1.0  0.81749  0.00994  0.36834  1.0000
  C   C50       1.0  0.78686  0.99578  0.44386  1.0000
  C   C51       1.0  0.73224  0.99727  0.43984  1.0000
  C   C52       1.0  0.70639  0.01375  0.36050  1.0000
  C   C53       1.0  0.01025  0.20204  0.36927  1.0000
  C   C54       1.0  0.99625  0.23279  0.44470  1.0000
  C   C55       1.0  0.01465  0.31306  0.36107  1.0000
  C   C56       1.0  0.99801  0.28738  0.44048  1.0000
  H   H23       1.0  0.98800  0.30833  0.49648  1.0000
  H   H24       1.0  0.98477  0.21549  0.50366  1.0000
  H   H25       1.0  0.11392  0.18238  0.37772  1.0000
  H   H26       1.0  0.18287  0.11335  0.37731  1.0000
  H   H27       1.0  0.04215  0.04174  0.37364  1.0000
  H   H28       1.0  0.97771  0.97734  0.37744  1.0000
  H   H29       1.0  0.90507  0.18398  0.37093  1.0000
  H   H30       1.0  0.83578  0.11476  0.37312  1.0000
  H   H31       1.0  0.80426  0.98460  0.50288  1.0000
  H   H32       1.0  0.71140  0.98730  0.49598  1.0000
  H   H33       1.0  0.83717  0.90563  0.36856  1.0000
  H   H34       1.0  0.90633  0.83657  0.37206  1.0000
  H   H35       1.0  0.18446  0.90472  0.37577  1.0000
  H   H36       1.0  0.11515  0.83528  0.37435  1.0000
  H   H37       1.0  0.03154  0.80786  0.51374  1.0000
  H   H38       1.0  0.03430  0.71511  0.51228  1.0000
  H   H39       1.0  0.21138  0.03018  0.51464  1.0000
  H   H40       1.0  0.30414  0.03335  0.51345  1.0000
  N   N5        1.0  0.01670  0.65381  0.37848  1.0000
  N   N6        1.0  0.65485  0.01752  0.35251  1.0000
  N   N7        1.0  0.01838  0.36459  0.35276  1.0000
  N   N8        1.0  0.36557  0.01635  0.37953  1.0000
  C   C57       1.0  0.99838  0.45436  0.36297  1.0000
  C   C58       1.0  0.99096  0.48908  0.43585  1.0000
  C   C59       1.0  0.99356  0.54292  0.42401  1.0000
  H   H41       1.0  0.98426  0.56618  0.47772  1.0000
  H   H42       1.0  0.98079  0.47550  0.49855  1.0000
  C   C60       1.0  0.98931  0.40172  0.38125  1.0000
  H   H43       1.0  0.95776  0.39262  0.41642  1.0000
  C   C61       1.0  0.56500  0.99780  0.36330  1.0000
  C   C62       1.0  0.53043  0.99025  0.43637  1.0000
  C   C63       1.0  0.47657  0.99288  0.42492  1.0000
  H   H44       1.0  0.45342  0.98338  0.47868  1.0000
  H   H45       1.0  0.54411  0.97987  0.49888  1.0000
  C   C64       1.0  0.61766  0.98855  0.38116  1.0000
  H   H46       1.0  0.62672  0.95698  0.41631  1.0000
