data_image0
_chemical_formula_structural       C8HC7HCH4N2C2HC4HNH2NO2CHC2HC4HNH2NO2CHC2HC4HNH2NO2CHC2HC4HNH2NO2CHC2HC4HNH2NO2CHC2HC4HNH2NO2CHN2C8HC7HCH4N4C8HC7HCH4N4C6H2NH2NO2CHC6H2NH2NO2CHC6H2NH2NO2CHC6H2NH2NO2CHC6H2NH2NO2CHC6H2NH2NO2CH
_chemical_formula_sum              "C132 H78 N36 O24"
_cell_length_a       39.8838
_cell_length_b       39.8839
_cell_length_c       14.9296
_cell_angle_alpha    89.9998
_cell_angle_beta     90.0002
_cell_angle_gamma    120

_space_group_name_H-M_alt    "P 1"
_space_group_IT_number       1

loop_
  _space_group_symop_operation_xyz
  'x, y, z'

loop_
  _atom_site_type_symbol
  _atom_site_label
  _atom_site_symmetry_multiplicity
  _atom_site_fract_x
  _atom_site_fract_y
  _atom_site_fract_z
  _atom_site_occupancy
  C   C1        1.0  0.99237  0.50354  0.34386  1.0000
  C   C2        1.0  0.97189  0.46216  0.34414  1.0000
  C   C3        1.0  0.93082  0.44144  0.34318  1.0000
  C   C4        1.0  0.91081  0.46218  0.34235  1.0000
  C   C5        1.0  0.93012  0.50287  0.34238  1.0000
  C   C6        1.0  0.97134  0.52394  0.34300  1.0000
  C   C7        1.0  0.99315  0.44258  0.34306  1.0000
  C   C8        1.0  0.99245  0.56483  0.34114  1.0000
  H   H1        1.0  0.88106  0.44693  0.34338  1.0000
  C   C9        1.0  0.03384  0.52437  0.34394  1.0000
  C   C10       1.0  0.05487  0.50396  0.34325  1.0000
  C   C11       1.0  0.09609  0.52504  0.34278  1.0000
  C   C12       1.0  0.11539  0.56573  0.34266  1.0000
  C   C13       1.0  0.09539  0.58646  0.34339  1.0000
  C   C14       1.0  0.05431  0.56574  0.34418  1.0000
  C   C15       1.0  0.03375  0.46308  0.34144  1.0000
  H   H2        1.0  0.14514  0.58098  0.34369  1.0000
  C   C16       1.0  0.03305  0.58532  0.34292  1.0000
  H   H3        1.0  0.04757  0.44738  0.33820  1.0000
  H   H4        1.0  0.97925  0.41297  0.34153  1.0000
  H   H5        1.0  0.04694  0.61493  0.34134  1.0000
  H   H6        1.0  0.97863  0.58051  0.33779  1.0000
  N   N1        1.0  0.90888  0.40310  0.35135  1.0000
  N   N2        1.0  0.11729  0.62482  0.35121  1.0000
  C   C17       1.0  0.21002  0.48953  0.26989  1.0000
  C   C18       1.0  0.17404  0.48775  0.28423  1.0000
  H   H7        1.0  0.16051  0.49200  0.23068  1.0000
  C   C19       1.0  0.26701  0.48884  0.33783  1.0000
  C   C20       1.0  0.34147  0.49669  0.31256  1.0000
  C   C21       1.0  0.30810  0.46346  0.27977  1.0000
  C   C22       1.0  0.27124  0.45965  0.29432  1.0000
  H   H8        1.0  0.24724  0.43568  0.26976  1.0000
  N   N3        1.0  0.22528  0.49733  0.18575  1.0000
  H   H9        1.0  0.21182  0.50123  0.13599  1.0000
  H   H10       1.0  0.25037  0.50007  0.17258  1.0000
  N   N4        1.0  0.31234  0.43512  0.23208  1.0000
  O   O1        1.0  0.29977  0.43146  0.15341  1.0000
  O   O2        1.0  0.29474  0.40277  0.27036  1.0000
  C   C23       1.0  0.37855  0.50507  0.29016  1.0000
  H   H11       1.0  0.38837  0.51620  0.22965  1.0000
  C   C24       1.0  0.53764  0.73534  0.26969  1.0000
  C   C25       1.0  0.53947  0.70116  0.28397  1.0000
  H   H12       1.0  0.53524  0.68340  0.23040  1.0000
  C   C26       1.0  0.53825  0.79296  0.33773  1.0000
  C   C27       1.0  0.53033  0.85954  0.31264  1.0000
  C   C28       1.0  0.56357  0.85945  0.27981  1.0000
  C   C29       1.0  0.56742  0.82641  0.29426  1.0000
  H   H13       1.0  0.59141  0.82643  0.26969  1.0000
  N   N5        1.0  0.52984  0.74282  0.18557  1.0000
  H   H14       1.0  0.52595  0.72546  0.13579  1.0000
  H   H15       1.0  0.52705  0.76514  0.17244  1.0000
  N   N6        1.0  0.59189  0.89207  0.23218  1.0000
  O   O3        1.0  0.59556  0.88319  0.15348  1.0000
  O   O4        1.0  0.62424  0.90683  0.27046  1.0000
  C   C30       1.0  0.52190  0.88823  0.29035  1.0000
  H   H16       1.0  0.51071  0.88689  0.22991  1.0000
  C   C31       1.0  0.29168  0.81706  0.26961  1.0000
  C   C32       1.0  0.32584  0.85306  0.28394  1.0000
  H   H17       1.0  0.34356  0.86667  0.23034  1.0000
  C   C33       1.0  0.23410  0.75997  0.33757  1.0000
  C   C34       1.0  0.16747  0.68552  0.31220  1.0000
  C   C35       1.0  0.16755  0.71892  0.27992  1.0000
  C   C36       1.0  0.20062  0.75577  0.29447  1.0000
  H   H18       1.0  0.20059  0.77980  0.27026  1.0000
  N   N7        1.0  0.28415  0.80186  0.18541  1.0000
  H   H19       1.0  0.30144  0.81541  0.13558  1.0000
  H   H20       1.0  0.26182  0.77678  0.17222  1.0000
  N   N8        1.0  0.13489  0.71473  0.23264  1.0000
  O   O5        1.0  0.14369  0.72739  0.15401  1.0000
  O   O6        1.0  0.12019  0.73228  0.27137  1.0000
  C   C37       1.0  0.13871  0.64846  0.28973  1.0000
  H   H21       1.0  0.14047  0.63854  0.22971  1.0000
  C   C38       1.0  0.81616  0.53836  0.26973  1.0000
  C   C39       1.0  0.85214  0.54013  0.28403  1.0000
  H   H22       1.0  0.86565  0.53585  0.23047  1.0000
  C   C40       1.0  0.75920  0.53907  0.33775  1.0000
  C   C41       1.0  0.68472  0.53119  0.31254  1.0000
  C   C42       1.0  0.71808  0.56442  0.27973  1.0000
  C   C43       1.0  0.75495  0.56825  0.29424  1.0000
  H   H23       1.0  0.77894  0.59223  0.26967  1.0000
  N   N9        1.0  0.80087  0.53054  0.18563  1.0000
  H   H24       1.0  0.81433  0.52664  0.13584  1.0000
  H   H25       1.0  0.77580  0.52783  0.17247  1.0000
  N   N10       1.0  0.71381  0.59275  0.23205  1.0000
  O   O7        1.0  0.72638  0.59642  0.15337  1.0000
  O   O8        1.0  0.73141  0.62511  0.27032  1.0000
  C   C44       1.0  0.64763  0.52279  0.29017  1.0000
  H   H26       1.0  0.63781  0.51167  0.22966  1.0000
  C   C45       1.0  0.48854  0.29250  0.26967  1.0000
  C   C46       1.0  0.48672  0.32669  0.28397  1.0000
  H   H27       1.0  0.49096  0.34446  0.23040  1.0000
  C   C47       1.0  0.48792  0.23488  0.33771  1.0000
  C   C48       1.0  0.49586  0.16830  0.31262  1.0000
  C   C49       1.0  0.46261  0.16839  0.27980  1.0000
  C   C50       1.0  0.45876  0.20143  0.29425  1.0000
  H   H28       1.0  0.43477  0.20141  0.26968  1.0000
  N   N11       1.0  0.49635  0.28504  0.18556  1.0000
  H   H29       1.0  0.50021  0.30237  0.13577  1.0000
  H   H30       1.0  0.49909  0.26269  0.17241  1.0000
  N   N12       1.0  0.43429  0.13577  0.23217  1.0000
  O   O9        1.0  0.43061  0.14464  0.15348  1.0000
  O   O10       1.0  0.40194  0.12101  0.27046  1.0000
  C   C51       1.0  0.50428  0.13962  0.29033  1.0000
  H   H31       1.0  0.51551  0.14098  0.22992  1.0000
  C   C52       1.0  0.73450  0.21077  0.26974  1.0000
  C   C53       1.0  0.70032  0.17478  0.28405  1.0000
  H   H32       1.0  0.68256  0.16123  0.23048  1.0000
  C   C54       1.0  0.79214  0.26779  0.33773  1.0000
  C   C55       1.0  0.85874  0.34227  0.31247  1.0000
  C   C56       1.0  0.85863  0.30890  0.27979  1.0000
  C   C57       1.0  0.82558  0.27203  0.29431  1.0000
  H   H33       1.0  0.82558  0.24804  0.26983  1.0000
  N   N13       1.0  0.74198  0.22603  0.18560  1.0000
  H   H34       1.0  0.72463  0.21255  0.13582  1.0000
  H   H35       1.0  0.76431  0.25112  0.17245  1.0000
  N   N14       1.0  0.89124  0.31315  0.23220  1.0000
  O   O11       1.0  0.88236  0.30057  0.15352  1.0000
  O   O12       1.0  0.90599  0.29557  0.27056  1.0000
  C   C58       1.0  0.88744  0.37936  0.29005  1.0000
  H   H36       1.0  0.88589  0.38918  0.22973  1.0000
  N   N15       1.0  0.90590  0.51672  0.33993  1.0000
  N   N16       1.0  0.12030  0.51119  0.34026  1.0000
  C   C59       1.0  0.52348  0.50357  0.34386  1.0000
  C   C60       1.0  0.56485  0.52442  0.34415  1.0000
  C   C61       1.0  0.58551  0.50401  0.34328  1.0000
  C   C62       1.0  0.56473  0.46328  0.34249  1.0000
  C   C63       1.0  0.52404  0.44194  0.34257  1.0000
  C   C64       1.0  0.50302  0.46213  0.34309  1.0000
  C   C65       1.0  0.58449  0.56526  0.34299  1.0000
  C   C66       1.0  0.46214  0.44242  0.34127  1.0000
  H   H37       1.0  0.57995  0.44874  0.34355  1.0000
  C   C67       1.0  0.50270  0.52427  0.34386  1.0000
  C   C68       1.0  0.52316  0.56571  0.34307  1.0000
  C   C69       1.0  0.50214  0.58591  0.34254  1.0000
  C   C70       1.0  0.46145  0.56457  0.34248  1.0000
  C   C71       1.0  0.44067  0.52383  0.34324  1.0000
  C   C72       1.0  0.46133  0.50343  0.34414  1.0000
  C   C73       1.0  0.56405  0.58543  0.34126  1.0000
  H   H38       1.0  0.44623  0.57911  0.34351  1.0000
  C   C74       1.0  0.44170  0.46258  0.34298  1.0000
  H   H39       1.0  0.57978  0.61493  0.33799  1.0000
  H   H40       1.0  0.61410  0.58094  0.34147  1.0000
  H   H41       1.0  0.41208  0.44691  0.34144  1.0000
  H   H42       1.0  0.44641  0.41292  0.33798  1.0000
  N   N17       1.0  0.51016  0.40387  0.34005  1.0000
  N   N18       1.0  0.62384  0.52035  0.35152  1.0000
  N   N19       1.0  0.40234  0.50750  0.35150  1.0000
  N   N20       1.0  0.51602  0.62398  0.34004  1.0000
  C   C75       1.0  0.52343  0.03465  0.34411  1.0000
  C   C76       1.0  0.50258  0.05518  0.34441  1.0000
  C   C77       1.0  0.52299  0.09625  0.34366  1.0000
  C   C78       1.0  0.56373  0.11620  0.34269  1.0000
  C   C79       1.0  0.58506  0.09685  0.34266  1.0000
  C   C80       1.0  0.56487  0.05563  0.34330  1.0000
  C   C81       1.0  0.46174  0.03397  0.34325  1.0000
  C   C82       1.0  0.58459  0.03446  0.34148  1.0000
  H   H43       1.0  0.57826  0.14596  0.34370  1.0000
  C   C83       1.0  0.50274  0.99318  0.34410  1.0000
  C   C84       1.0  0.46130  0.97220  0.34325  1.0000
  C   C85       1.0  0.44110  0.93098  0.34259  1.0000
  C   C86       1.0  0.46243  0.91162  0.34267  1.0000
  C   C87       1.0  0.50317  0.93158  0.34367  1.0000
  C   C88       1.0  0.52358  0.97265  0.34444  1.0000
  C   C89       1.0  0.44158  0.99336  0.34142  1.0000
  H   H44       1.0  0.44790  0.88187  0.34363  1.0000
  C   C90       1.0  0.56442  0.99386  0.34331  1.0000
  H   H45       1.0  0.41208  0.97959  0.33808  1.0000
  H   H46       1.0  0.44606  0.04790  0.34166  1.0000
  H   H47       1.0  0.58010  0.97992  0.34171  1.0000
  H   H48       1.0  0.61408  0.04824  0.33816  1.0000
  N   N21       1.0  0.62313  0.12104  0.34015  1.0000
  N   N22       1.0  0.50663  0.11823  0.35171  1.0000
  N   N23       1.0  0.51952  0.90959  0.35174  1.0000
  N   N24       1.0  0.40303  0.90680  0.33998  1.0000
  C   C91       1.0  0.15710  0.48225  0.37033  1.0000
  C   C92       1.0  0.17632  0.47668  0.44401  1.0000
  C   C93       1.0  0.21176  0.47735  0.42987  1.0000
  C   C94       1.0  0.22927  0.48441  0.34446  1.0000
  C   C95       1.0  0.30057  0.52238  0.37059  1.0000
  C   C96       1.0  0.33717  0.52544  0.35789  1.0000
  H   H49       1.0  0.36148  0.55015  0.37877  1.0000
  H   H50       1.0  0.22571  0.47415  0.48400  1.0000
  N   N25       1.0  0.29926  0.55235  0.41088  1.0000
  H   H51       1.0  0.27521  0.55263  0.41815  1.0000
  H   H52       1.0  0.32272  0.57524  0.43139  1.0000
  N   N26       1.0  0.16083  0.47207  0.53156  1.0000
  O   O13       1.0  0.15347  0.44024  0.56530  1.0000
  O   O14       1.0  0.18348  0.49893  0.58278  1.0000
  C   C97       1.0  0.12396  0.48522  0.38286  1.0000
  H   H53       1.0  0.10606  0.47134  0.43328  1.0000
  C   C98       1.0  0.54498  0.68971  0.37005  1.0000
  C   C99       1.0  0.55052  0.71448  0.44377  1.0000
  C   C100      1.0  0.54979  0.74922  0.42969  1.0000
  C   C101      1.0  0.54272  0.75968  0.34430  1.0000
  C   C102      1.0  0.50469  0.79294  0.37052  1.0000
  C   C103      1.0  0.50159  0.82646  0.35791  1.0000
  H   H54       1.0  0.47686  0.82601  0.37883  1.0000
  H   H55       1.0  0.55297  0.76635  0.48385  1.0000
  N   N27       1.0  0.47473  0.76162  0.41078  1.0000
  H   H56       1.0  0.47449  0.73731  0.41798  1.0000
  H   H57       1.0  0.45184  0.76216  0.43130  1.0000
  N   N28       1.0  0.55512  0.70357  0.53130  1.0000
  O   O15       1.0  0.58693  0.72805  0.56509  1.0000
  O   O16       1.0  0.52825  0.69932  0.58251  1.0000
  C   C104      1.0  0.54204  0.65361  0.38252  1.0000
  H   H58       1.0  0.55596  0.64960  0.43289  1.0000
  C   C105      1.0  0.33734  0.86995  0.37009  1.0000
  C   C106      1.0  0.31263  0.85063  0.44383  1.0000
  C   C107      1.0  0.27792  0.81515  0.42971  1.0000
  C   C108      1.0  0.26740  0.79771  0.34424  1.0000
  C   C109      1.0  0.23414  0.72638  0.36985  1.0000
  C   C110      1.0  0.20060  0.68977  0.35708  1.0000
  H   H59       1.0  0.20105  0.66545  0.37763  1.0000
  H   H60       1.0  0.26081  0.80113  0.48388  1.0000
  N   N29       1.0  0.26549  0.72766  0.40976  1.0000
  H   H61       1.0  0.28979  0.75171  0.41709  1.0000
  H   H62       1.0  0.26495  0.70418  0.42997  1.0000
  N   N30       1.0  0.32358  0.86608  0.53141  1.0000
  O   O17       1.0  0.29908  0.87333  0.56542  1.0000
  O   O18       1.0  0.32789  0.84343  0.58241  1.0000
  C   C111      1.0  0.37340  0.90318  0.38252  1.0000
  H   H63       1.0  0.37744  0.92100  0.43313  1.0000
  C   C112      1.0  0.86911  0.54565  0.37011  1.0000
  C   C113      1.0  0.84992  0.55126  0.44380  1.0000
  C   C114      1.0  0.81448  0.55059  0.42970  1.0000
  C   C115      1.0  0.79694  0.54351  0.34432  1.0000
  C   C116      1.0  0.72565  0.50553  0.37053  1.0000
  C   C117      1.0  0.68904  0.50245  0.35785  1.0000
  H   H64       1.0  0.66474  0.47773  0.37876  1.0000
  H   H65       1.0  0.80055  0.55382  0.48384  1.0000
  N   N31       1.0  0.72699  0.47556  0.41082  1.0000
  H   H66       1.0  0.75103  0.47530  0.41807  1.0000
  H   H67       1.0  0.70353  0.45267  0.43134  1.0000
  N   N32       1.0  0.86544  0.55589  0.53133  1.0000
  O   O19       1.0  0.87282  0.58774  0.56502  1.0000
  O   O20       1.0  0.84280  0.52906  0.58260  1.0000
  C   C118      1.0  0.90223  0.54265  0.38264  1.0000
  H   H68       1.0  0.92017  0.55649  0.43303  1.0000
  C   C119      1.0  0.48120  0.33813  0.37005  1.0000
  C   C120      1.0  0.47566  0.31336  0.44376  1.0000
  C   C121      1.0  0.47638  0.27862  0.42967  1.0000
  C   C122      1.0  0.48345  0.26816  0.34428  1.0000
  C   C123      1.0  0.52149  0.23491  0.37049  1.0000
  C   C124      1.0  0.52460  0.20139  0.35788  1.0000
  H   H69       1.0  0.54932  0.20184  0.37879  1.0000
  H   H70       1.0  0.47319  0.26148  0.48382  1.0000
  N   N33       1.0  0.55145  0.26623  0.41074  1.0000
  H   H71       1.0  0.55169  0.29054  0.41794  1.0000
  H   H72       1.0  0.57435  0.26569  0.43126  1.0000
  N   N34       1.0  0.47104  0.32426  0.53129  1.0000
  O   O21       1.0  0.43923  0.29978  0.56505  1.0000
  O   O22       1.0  0.49791  0.32850  0.58251  1.0000
  C   C125      1.0  0.48414  0.37424  0.38252  1.0000
  H   H73       1.0  0.47022  0.37824  0.43289  1.0000
  C   C126      1.0  0.68887  0.15783  0.37015  1.0000
  C   C127      1.0  0.71363  0.17708  0.44387  1.0000
  C   C128      1.0  0.74837  0.21254  0.42975  1.0000
  C   C129      1.0  0.75884  0.23005  0.34434  1.0000
  C   C130      1.0  0.79213  0.30135  0.37039  1.0000
  C   C131      1.0  0.82566  0.33796  0.35769  1.0000
  H   H74       1.0  0.82523  0.36226  0.37850  1.0000
  H   H75       1.0  0.76551  0.22651  0.48390  1.0000
  N   N35       1.0  0.76082  0.30003  0.41059  1.0000
  H   H76       1.0  0.73651  0.27598  0.41786  1.0000
  H   H77       1.0  0.76138  0.32349  0.43103  1.0000
  N   N36       1.0  0.70272  0.16159  0.53141  1.0000
  O   O23       1.0  0.72721  0.15427  0.56523  1.0000
  O   O24       1.0  0.69848  0.18423  0.58258  1.0000
  C   C132      1.0  0.65276  0.12467  0.38264  1.0000
  H   H78       1.0  0.64877  0.10675  0.43303  1.0000
