data_image0
_chemical_formula_structural       NC7H4CHNC13H3NC2H3C6H7CNC6H3NCHC5H5C2NC2O2C2H4NC2O2C2H4C4NC26H19
_chemical_formula_sum              "N8 C82 H54 O4"
_cell_length_a       29.8791
_cell_length_b       29.8788
_cell_length_c       14.8342
_cell_angle_alpha    90
_cell_angle_beta     90
_cell_angle_gamma    89.9283

_space_group_name_H-M_alt    "P 1"
_space_group_IT_number       1

loop_
  _space_group_symop_operation_xyz
  'x, y, z'

loop_
  _atom_site_type_symbol
  _atom_site_label
  _atom_site_symmetry_multiplicity
  _atom_site_fract_x
  _atom_site_fract_y
  _atom_site_fract_z
  _atom_site_occupancy
  N   N1        1.0  0.05522  0.05885  0.34559  1.0000
  C   C1        1.0  0.09971  0.05049  0.34619  1.0000
  C   C2        1.0  0.24039  0.01624  0.26425  1.0000
  C   C3        1.0  0.19327  0.01556  0.26452  1.0000
  C   C4        1.0  0.38438  0.04265  0.29421  1.0000
  C   C5        1.0  0.33726  0.04300  0.29662  1.0000
  C   C6        1.0  0.81457  0.01073  0.26554  1.0000
  C   C7        1.0  0.76744  0.01096  0.26579  1.0000
  H   H1        1.0  0.75125  0.01554  0.20571  1.0000
  H   H2        1.0  0.83120  0.01447  0.20567  1.0000
  H   H3        1.0  0.17644  0.02046  0.20520  1.0000
  H   H4        1.0  0.25649  0.02103  0.20412  1.0000
  C   C8        1.0  0.45642  0.00737  0.33456  1.0000
  H   H5        1.0  0.38950  0.02795  0.09759  1.0000
  N   N2        1.0  0.95325  0.05701  0.34699  1.0000
  C   C9        1.0  0.90881  0.04775  0.34711  1.0000
  C   C10       1.0  0.88648  0.00565  0.34681  1.0000
  C   C11       1.0  0.12162  0.00824  0.34589  1.0000
  C   C12       1.0  0.16944  0.00826  0.34541  1.0000
  C   C13       1.0  0.26518  0.00937  0.34451  1.0000
  C   C14       1.0  0.31308  0.00963  0.34377  1.0000
  C   C15       1.0  0.40891  0.00848  0.33781  1.0000
  C   C16       1.0  0.83868  0.00575  0.34677  1.0000
  C   C17       1.0  0.74280  0.00616  0.34693  1.0000
  C   C18       1.0  0.69475  0.00637  0.34706  1.0000
  C   C19       1.0  0.59827  0.00671  0.34743  1.0000
  C   C20       1.0  0.62303  0.02898  0.41533  1.0000
  C   C21       1.0  0.67017  0.02889  0.41501  1.0000
  H   H6        1.0  0.60701  0.04668  0.46477  1.0000
  H   H7        1.0  0.68642  0.04647  0.46430  1.0000
  H   H8        1.0  0.97616  0.03442  0.34676  1.0000
  N   N3        1.0  0.47820  0.00826  0.41511  1.0000
  C   C22       1.0  0.52335  0.00831  0.42405  1.0000
  C   C23       1.0  0.55042  0.00701  0.34611  1.0000
  H   H9        1.0  0.53680  0.00833  0.48733  1.0000
  H   H10       1.0  0.32072  0.06832  0.26417  1.0000
  H   H11       1.0  0.40067  0.06751  0.25995  1.0000
  C   C24       1.0  0.00794  0.24354  0.26595  1.0000
  C   C25       1.0  0.00789  0.19641  0.26571  1.0000
  C   C26       1.0  0.01326  0.81774  0.26420  1.0000
  C   C27       1.0  0.01422  0.77061  0.26371  1.0000
  C   C28       1.0  0.04045  0.62644  0.29385  1.0000
  C   C29       1.0  0.04081  0.67357  0.29652  1.0000
  H   H12       1.0  0.01842  0.83466  0.20509  1.0000
  H   H13       1.0  0.01949  0.75460  0.20364  1.0000
  H   H14       1.0  0.01182  0.17979  0.20586  1.0000
  H   H15       1.0  0.01259  0.25972  0.20589  1.0000
  H   H16       1.0  0.06643  0.69008  0.26511  1.0000
  H   H17       1.0  0.06562  0.61010  0.26049  1.0000
  H   H18       1.0  0.02959  0.61924  0.09549  1.0000
  C   C30       1.0  0.04618  0.91228  0.34594  1.0000
  N   N4        1.0  0.05481  0.95686  0.34594  1.0000
  C   C31       1.0  0.04620  0.10322  0.34672  1.0000
  C   C32       1.0  0.02628  0.38786  0.41505  1.0000
  C   C33       1.0  0.02600  0.34071  0.41498  1.0000
  C   C34       1.0  0.00677  0.74570  0.34359  1.0000
  C   C35       1.0  0.00703  0.69780  0.34255  1.0000
  C   C36       1.0  0.00588  0.60198  0.33607  1.0000
  H   H19       1.0  0.03190  0.97944  0.34551  1.0000
  H   H20       1.0  0.04356  0.32440  0.46428  1.0000
  H   H21       1.0  0.04408  0.40382  0.46437  1.0000
  N   N5        1.0  0.00608  0.53289  0.41371  1.0000
  C   C37       1.0  0.00617  0.48777  0.42310  1.0000
  H   H22       1.0  0.00640  0.47446  0.48650  1.0000
  C   C38       1.0  0.98120  0.34106  0.27919  1.0000
  C   C39       1.0  0.98177  0.38818  0.27884  1.0000
  C   C40       1.0  0.00408  0.41267  0.34708  1.0000
  C   C41       1.0  0.66995  0.98418  0.27910  1.0000
  C   C42       1.0  0.62281  0.98459  0.27895  1.0000
  H   H23       1.0  0.60654  0.96757  0.22884  1.0000
  H   H24       1.0  0.68601  0.96667  0.22939  1.0000
  H   H25       1.0  0.09358  0.15840  0.35044  1.0000
  H   H26       1.0  0.96481  0.40449  0.22865  1.0000
  H   H27       1.0  0.96362  0.32504  0.22957  1.0000
  C   C43       1.0  0.00487  0.55449  0.33298  1.0000
  C   C44       1.0  0.00455  0.46052  0.34544  1.0000
  N   N6        1.0  0.00271  0.48261  0.26530  1.0000
  C   C45       1.0  0.00270  0.52792  0.25335  1.0000
  C   C46       1.0  0.00014  0.54437  0.16550  1.0000
  O   O1        1.0  0.99799  0.51717  0.10373  1.0000
  O   O2        1.0  0.97659  0.58207  0.15137  1.0000
  C   C47       1.0  0.99452  0.61102  0.08221  1.0000
  C   C48       1.0  0.96740  0.65483  0.07950  1.0000
  H   H28       1.0  0.99225  0.59496  0.01605  1.0000
  H   H29       1.0  0.93241  0.64773  0.06401  1.0000
  H   H30       1.0  0.98084  0.67702  0.02769  1.0000
  H   H31       1.0  0.96920  0.67178  0.14454  1.0000
  N   N7        1.0  0.52819  0.00545  0.26611  1.0000
  C   C49       1.0  0.48285  0.00550  0.25472  1.0000
  C   C50       1.0  0.46597  0.00311  0.16727  1.0000
  O   O3        1.0  0.49274  0.00358  0.10460  1.0000
  O   O4        1.0  0.42986  0.97720  0.15361  1.0000
  C   C51       1.0  0.39936  0.99319  0.08519  1.0000
  C   C52       1.0  0.35692  0.96403  0.08536  1.0000
  H   H32       1.0  0.41489  0.99109  0.01851  1.0000
  H   H33       1.0  0.36559  0.92927  0.07096  1.0000
  H   H34       1.0  0.33359  0.97589  0.03397  1.0000
  H   H35       1.0  0.34055  0.96572  0.15104  1.0000
  C   C53       1.0  0.88750  0.08942  0.34755  1.0000
  C   C54       1.0  0.91993  0.12231  0.34715  1.0000
  C   C55       1.0  0.96188  0.10158  0.34705  1.0000
  C   C56       1.0  0.90836  0.96339  0.34631  1.0000
  N   N8        1.0  0.95285  0.95497  0.34723  1.0000
  C   C57       1.0  0.96186  0.91060  0.34578  1.0000
  C   C58       1.0  0.92036  0.88915  0.34352  1.0000
  C   C59       1.0  0.88744  0.92162  0.34399  1.0000
  C   C60       1.0  0.00443  0.88929  0.34568  1.0000
  C   C61       1.0  0.09927  0.96615  0.34599  1.0000
  C   C62       1.0  0.12058  0.92449  0.34592  1.0000
  C   C63       1.0  0.08817  0.89160  0.34643  1.0000
  C   C64       1.0  0.08768  0.12473  0.34843  1.0000
  C   C65       1.0  0.12060  0.09228  0.34817  1.0000
  C   C66       1.0  0.00365  0.12450  0.34693  1.0000
  C   C67       1.0  0.00297  0.17230  0.34694  1.0000
  C   C68       1.0  0.99807  0.19636  0.42825  1.0000
  C   C69       1.0  0.99807  0.24350  0.42814  1.0000
  C   C70       1.0  0.00309  0.26816  0.34710  1.0000
  C   C71       1.0  0.00336  0.31620  0.34719  1.0000
  C   C72       1.0  0.19381  0.00151  0.42586  1.0000
  C   C73       1.0  0.24094  0.00185  0.42521  1.0000
  C   C74       1.0  0.33795  0.97623  0.38949  1.0000
  C   C75       1.0  0.38505  0.97575  0.38692  1.0000
  C   C76       1.0  0.00520  0.84146  0.34497  1.0000
  C   C77       1.0  0.99851  0.76981  0.42416  1.0000
  C   C78       1.0  0.99795  0.81694  0.42504  1.0000
  C   C79       1.0  0.97318  0.67297  0.38685  1.0000
  C   C80       1.0  0.97271  0.62588  0.38403  1.0000
  C   C81       1.0  0.81460  0.00096  0.42808  1.0000
  C   C82       1.0  0.76747  0.00114  0.42799  1.0000
  H   H36       1.0  0.75130  0.99672  0.48813  1.0000
  H   H37       1.0  0.83125  0.99713  0.48792  1.0000
  H   H38       1.0  0.85384  0.09557  0.34778  1.0000
  H   H39       1.0  0.91332  0.15588  0.34705  1.0000
  H   H40       1.0  0.85385  0.91528  0.34203  1.0000
  H   H41       1.0  0.91442  0.85549  0.34119  1.0000
  H   H42       1.0  0.99218  0.83328  0.48460  1.0000
  H   H43       1.0  0.99358  0.75321  0.48368  1.0000
  H   H44       1.0  0.09484  0.85804  0.34684  1.0000
  H   H45       1.0  0.15424  0.91834  0.34575  1.0000
  H   H46       1.0  0.15418  0.09869  0.35002  1.0000
  H   H47       1.0  0.17738  0.99640  0.48553  1.0000
  H   H48       1.0  0.25745  0.99738  0.48499  1.0000
  H   H49       1.0  0.40178  0.95054  0.41939  1.0000
  H   H50       1.0  0.32192  0.95110  0.42343  1.0000
  H   H51       1.0  0.99369  0.25968  0.48829  1.0000
  H   H52       1.0  0.99441  0.17971  0.48811  1.0000
  H   H53       1.0  0.94776  0.68904  0.41992  1.0000
  H   H54       1.0  0.94722  0.60918  0.41555  1.0000
