data_image0
_chemical_formula_structural       C2H2C2HCHC4H2NCOHC2H3NC2NC2NC2HNHC7H2C6H6N2C6H6N2C3H2NC6H6N2C6H6N2C3OH2CHC3OH2CHC3HOHC4HOHCHC3HOHCHC3HOHCHC3HOHCHC3HOHCH3NC12H5CNC2NHN2C12H5CNC2NHN2C8H4N2C12H5CNC2NHN2C12H5CNC2NHN2C3HOHCHC3HOHCHC3OH2CHC3OH2CHC3OH2CHC3OH2CHC3OH2CHC3OH2CHC3H4NCOHC4HC3NHNC2HCH
_chemical_formula_sum              "C198 H126 N36 O18"
_cell_length_a       76.9967
_cell_length_b       76.9966
_cell_length_c       14.9146
_cell_angle_alpha    90
_cell_angle_beta     90
_cell_angle_gamma    120

_space_group_name_H-M_alt    "P 1"
_space_group_IT_number       1

loop_
  _space_group_symop_operation_xyz
  'x, y, z'

loop_
  _atom_site_type_symbol
  _atom_site_label
  _atom_site_symmetry_multiplicity
  _atom_site_fract_x
  _atom_site_fract_y
  _atom_site_fract_z
  _atom_site_occupancy
  C   C1        1.0  0.09050  0.56016  0.31946  1.0000
  C   C2        1.0  0.11164  0.57084  0.31888  1.0000
  H   H1        1.0  0.08306  0.56791  0.31026  1.0000
  H   H2        1.0  0.11874  0.58599  0.30820  1.0000
  C   C3        1.0  0.01188  0.51261  0.24881  1.0000
  C   C4        1.0  0.02536  0.51685  0.32097  1.0000
  H   H3        1.0  0.01713  0.51936  0.18787  1.0000
  C   C5        1.0  0.04556  0.53095  0.30923  1.0000
  H   H4        1.0  0.04903  0.54323  0.27391  1.0000
  C   C6        1.0  0.12290  0.56107  0.33304  1.0000
  C   C7        1.0  0.11190  0.54007  0.34809  1.0000
  C   C8        1.0  0.09076  0.52940  0.34938  1.0000
  C   C9        1.0  0.07971  0.53921  0.33437  1.0000
  H   H5        1.0  0.08346  0.51429  0.36134  1.0000
  H   H6        1.0  0.11916  0.53221  0.35972  1.0000
  N   N1        1.0  0.05971  0.52816  0.33849  1.0000
  C   C10       1.0  0.01745  0.50699  0.40383  1.0000
  O   O1        1.0  0.02939  0.51106  0.47730  1.0000
  H   H7        1.0  0.03236  0.50007  0.48212  1.0000
  C   C11       1.0  0.18747  0.62460  0.33243  1.0000
  C   C12       1.0  0.17923  0.63728  0.31965  1.0000
  H   H8        1.0  0.16410  0.63126  0.31165  1.0000
  H   H9        1.0  0.18524  0.66709  0.30627  1.0000
  H   H10       1.0  0.16743  0.53516  0.29192  1.0000
  N   N2        1.0  0.15501  0.59250  0.33131  1.0000
  C   C13       1.0  0.18135  0.54355  0.31986  1.0000
  C   C14       1.0  0.17546  0.57215  0.34543  1.0000
  N   N3        1.0  0.18481  0.59238  0.34187  1.0000
  C   C15       1.0  0.17543  0.60320  0.33480  1.0000
  C   C16       1.0  0.14440  0.57197  0.33427  1.0000
  N   N4        1.0  0.15509  0.56219  0.34094  1.0000
  C   C17       1.0  0.19162  0.65836  0.31634  1.0000
  C   C18       1.0  0.21259  0.66744  0.32761  1.0000
  H   H11       1.0  0.18980  0.52186  0.29375  1.0000
  N   N5        1.0  0.22450  0.68728  0.32137  1.0000
  H   H12       1.0  0.22066  0.51853  0.27548  1.0000
  C   C19       1.0  0.18759  0.56304  0.35287  1.0000
  C   C20       1.0  0.22092  0.65490  0.33868  1.0000
  C   C21       1.0  0.20863  0.63400  0.34170  1.0000
  C   C22       1.0  0.20716  0.57407  0.38956  1.0000
  C   C23       1.0  0.22018  0.56627  0.39094  1.0000
  C   C24       1.0  0.21420  0.54721  0.35479  1.0000
  C   C25       1.0  0.19454  0.53577  0.32009  1.0000
  H   H13       1.0  0.21561  0.62578  0.35028  1.0000
  H   H14       1.0  0.21237  0.58814  0.41533  1.0000
  C   C26       1.0  0.38254  0.56426  0.33242  1.0000
  C   C27       1.0  0.44698  0.53174  0.31946  1.0000
  C   C28       1.0  0.43630  0.54221  0.31890  1.0000
  C   C29       1.0  0.36986  0.54335  0.31967  1.0000
  C   C30       1.0  0.34878  0.53466  0.31638  1.0000
  C   C31       1.0  0.33970  0.54655  0.32761  1.0000
  H   H15       1.0  0.43923  0.51655  0.31031  1.0000
  H   H16       1.0  0.42116  0.53415  0.30822  1.0000
  H   H17       1.0  0.37588  0.53424  0.31167  1.0000
  H   H18       1.0  0.34005  0.51955  0.30629  1.0000
  H   H19       1.0  0.48529  0.66935  0.29379  1.0000
  H   H20       1.0  0.47199  0.63368  0.29194  1.0000
  N   N6        1.0  0.41464  0.56390  0.33131  1.0000
  N   N7        1.0  0.31986  0.53862  0.32138  1.0000
  C   C32       1.0  0.44288  0.81967  0.33239  1.0000
  C   C33       1.0  0.47541  0.91665  0.31943  1.0000
  C   C34       1.0  0.46494  0.89550  0.31887  1.0000
  C   C35       1.0  0.46379  0.82791  0.31967  1.0000
  C   C36       1.0  0.47248  0.81552  0.31636  1.0000
  C   C37       1.0  0.46059  0.79455  0.32756  1.0000
  H   H21       1.0  0.49060  0.92408  0.31026  1.0000
  H   H22       1.0  0.47299  0.88840  0.30818  1.0000
  H   H23       1.0  0.47290  0.84304  0.31172  1.0000
  H   H24       1.0  0.48759  0.82190  0.30634  1.0000
  H   H25       1.0  0.33780  0.81733  0.29366  1.0000
  H   H26       1.0  0.37346  0.83970  0.29182  1.0000
  N   N8        1.0  0.44324  0.85213  0.33129  1.0000
  N   N9        1.0  0.46852  0.78264  0.32134  1.0000
  C   C38       1.0  0.82125  0.38095  0.33710  1.0000
  C   C39       1.0  0.81681  0.34720  0.31556  1.0000
  C   C40       1.0  0.79601  0.33813  0.33219  1.0000
  H   H27       1.0  0.82300  0.33849  0.30075  1.0000
  H   H28       1.0  0.81878  0.48366  0.28914  1.0000
  N   N10       1.0  0.78400  0.31833  0.32435  1.0000
  C   C41       1.0  0.62620  0.44172  0.33713  1.0000
  C   C42       1.0  0.56156  0.47403  0.33817  1.0000
  C   C43       1.0  0.57237  0.46370  0.33928  1.0000
  C   C44       1.0  0.63887  0.46241  0.31900  1.0000
  C   C45       1.0  0.65995  0.47101  0.31552  1.0000
  C   C46       1.0  0.66902  0.45929  0.33223  1.0000
  H   H29       1.0  0.56925  0.48927  0.34561  1.0000
  H   H30       1.0  0.58754  0.47188  0.34902  1.0000
  H   H31       1.0  0.63285  0.47135  0.30600  1.0000
  H   H32       1.0  0.66866  0.48591  0.30065  1.0000
  H   H33       1.0  0.52350  0.33653  0.28904  1.0000
  H   H34       1.0  0.53687  0.37222  0.28726  1.0000
  N   N11       1.0  0.59410  0.44201  0.33198  1.0000
  N   N12       1.0  0.68882  0.46708  0.32437  1.0000
  C   C47       1.0  0.56541  0.18588  0.33728  1.0000
  C   C48       1.0  0.53312  0.08893  0.33815  1.0000
  C   C49       1.0  0.54345  0.11007  0.33928  1.0000
  C   C50       1.0  0.54473  0.17786  0.31895  1.0000
  C   C51       1.0  0.53613  0.19033  0.31548  1.0000
  C   C52       1.0  0.54783  0.21111  0.33242  1.0000
  H   H35       1.0  0.51788  0.08138  0.34559  1.0000
  H   H36       1.0  0.53526  0.11706  0.34900  1.0000
  H   H37       1.0  0.53580  0.16290  0.30578  1.0000
  H   H38       1.0  0.52123  0.18415  0.30045  1.0000
  H   H39       1.0  0.67061  0.18836  0.28919  1.0000
  H   H40       1.0  0.63493  0.16605  0.28743  1.0000
  N   N13       1.0  0.56513  0.15348  0.33204  1.0000
  N   N14       1.0  0.54006  0.22314  0.32447  1.0000
  C   C53       1.0  0.49453  0.50068  0.24882  1.0000
  C   C54       1.0  0.50805  0.49343  0.25816  1.0000
  C   C55       1.0  0.49030  0.50992  0.32098  1.0000
  O   O2        1.0  0.51211  0.48557  0.18464  1.0000
  H   H41       1.0  0.48777  0.49918  0.18789  1.0000
  H   H42       1.0  0.50113  0.47159  0.17998  1.0000
  C   C56       1.0  0.47619  0.51601  0.30928  1.0000
  H   H43       1.0  0.46391  0.50720  0.27401  1.0000
  C   C57       1.0  0.50648  0.99526  0.24882  1.0000
  C   C58       1.0  0.51373  0.01603  0.25817  1.0000
  C   C59       1.0  0.49723  0.98178  0.32098  1.0000
  O   O3        1.0  0.52159  0.02794  0.18465  1.0000
  H   H44       1.0  0.50798  0.99000  0.18790  1.0000
  H   H45       1.0  0.53557  0.03095  0.17999  1.0000
  C   C60       1.0  0.49114  0.96158  0.30928  1.0000
  H   H46       1.0  0.49995  0.95811  0.27400  1.0000
  C   C61       1.0  0.24860  0.52863  0.33302  1.0000
  C   C62       1.0  0.26085  0.53078  0.25844  1.0000
  C   C63       1.0  0.28048  0.53408  0.26980  1.0000
  H   H47       1.0  0.25595  0.53108  0.19486  1.0000
  O   O4        1.0  0.29209  0.53811  0.19529  1.0000
  H   H48       1.0  0.28944  0.52504  0.17211  1.0000
  C   C64       1.0  0.23046  0.52799  0.31979  1.0000
  C   C65       1.0  0.47851  0.72136  0.33302  1.0000
  C   C66       1.0  0.47636  0.73146  0.25843  1.0000
  C   C67       1.0  0.47306  0.74780  0.26978  1.0000
  H   H49       1.0  0.47607  0.72628  0.19486  1.0000
  O   O5        1.0  0.46903  0.75538  0.19526  1.0000
  H   H50       1.0  0.48210  0.76580  0.17209  1.0000
  C   C68       1.0  0.47916  0.70388  0.31980  1.0000
  H   H51       1.0  0.48862  0.70353  0.27551  1.0000
  C   C69       1.0  0.28579  0.75854  0.33301  1.0000
  C   C70       1.0  0.27569  0.74629  0.25843  1.0000
  C   C71       1.0  0.25935  0.72666  0.26980  1.0000
  H   H52       1.0  0.28088  0.75118  0.19486  1.0000
  O   O6        1.0  0.25177  0.71505  0.19528  1.0000
  H   H53       1.0  0.24136  0.71770  0.17209  1.0000
  C   C72       1.0  0.30327  0.77668  0.31979  1.0000
  H   H54       1.0  0.30362  0.78648  0.27546  1.0000
  C   C73       1.0  0.76016  0.47720  0.33149  1.0000
  C   C74       1.0  0.74763  0.47491  0.25785  1.0000
  C   C75       1.0  0.72807  0.47170  0.27070  1.0000
  H   H55       1.0  0.75226  0.47445  0.19393  1.0000
  O   O7        1.0  0.71619  0.46755  0.19704  1.0000
  H   H56       1.0  0.71879  0.48059  0.17362  1.0000
  C   C76       1.0  0.77819  0.47773  0.31696  1.0000
  H   H57       1.0  0.78796  0.48723  0.27263  1.0000
  C   C77       1.0  0.52995  0.28437  0.33146  1.0000
  C   C78       1.0  0.53226  0.27413  0.25786  1.0000
  C   C79       1.0  0.53545  0.25777  0.27075  1.0000
  H   H58       1.0  0.53273  0.27923  0.19393  1.0000
  O   O8        1.0  0.53961  0.25004  0.19712  1.0000
  H   H59       1.0  0.52658  0.23961  0.17365  1.0000
  C   C80       1.0  0.52943  0.30188  0.31690  1.0000
  H   H60       1.0  0.51994  0.30215  0.27251  1.0000
  C   C81       1.0  0.72278  0.24700  0.33147  1.0000
  C   C82       1.0  0.73302  0.25952  0.25783  1.0000
  C   C83       1.0  0.74937  0.27908  0.27068  1.0000
  H   H61       1.0  0.72793  0.25488  0.19391  1.0000
  O   O9        1.0  0.75710  0.29096  0.19701  1.0000
  H   H62       1.0  0.76754  0.28836  0.17360  1.0000
  C   C84       1.0  0.70527  0.22896  0.31694  1.0000
  H   H63       1.0  0.70501  0.21919  0.27262  1.0000
  H   H64       1.0  0.23612  0.66090  0.34385  1.0000
  H   H65       1.0  0.23431  0.57491  0.41665  1.0000
  N   N15       1.0  0.22802  0.54175  0.35581  1.0000
  C   C85       1.0  0.44607  0.56322  0.33304  1.0000
  C   C86       1.0  0.44410  0.62595  0.35284  1.0000
  C   C87       1.0  0.46707  0.57323  0.34808  1.0000
  C   C88       1.0  0.47774  0.56277  0.34939  1.0000
  C   C89       1.0  0.46793  0.54190  0.33443  1.0000
  C   C90       1.0  0.35224  0.56742  0.33867  1.0000
  C   C91       1.0  0.37314  0.57602  0.34168  1.0000
  C   C92       1.0  0.43307  0.63450  0.38953  1.0000
  C   C93       1.0  0.44087  0.65531  0.39095  1.0000
  C   C94       1.0  0.45993  0.66839  0.35480  1.0000
  C   C95       1.0  0.47137  0.66017  0.32013  1.0000
  C   C96       1.0  0.46360  0.63921  0.31988  1.0000
  H   H66       1.0  0.49285  0.57058  0.36135  1.0000
  H   H67       1.0  0.38136  0.59123  0.35024  1.0000
  H   H68       1.0  0.34624  0.57661  0.34383  1.0000
  H   H69       1.0  0.41899  0.62563  0.41528  1.0000
  H   H70       1.0  0.43223  0.66081  0.41662  1.0000
  C   C97       1.0  0.43499  0.60471  0.34541  1.0000
  N   N16       1.0  0.41476  0.59384  0.34185  1.0000
  C   C98       1.0  0.40394  0.57363  0.33479  1.0000
  C   C99       1.0  0.43517  0.57383  0.33427  1.0000
  N   N17       1.0  0.44495  0.59430  0.34094  1.0000
  H   H71       1.0  0.47493  0.58835  0.35970  1.0000
  N   N18       1.0  0.46539  0.68767  0.35581  1.0000
  N   N19       1.0  0.47898  0.53296  0.33851  1.0000
  C   C100      1.0  0.44392  0.88425  0.33304  1.0000
  C   C101      1.0  0.38120  0.81956  0.35295  1.0000
  C   C102      1.0  0.43392  0.89524  0.34810  1.0000
  C   C103      1.0  0.44439  0.91638  0.34941  1.0000
  C   C104      1.0  0.46526  0.92744  0.33443  1.0000
  C   C105      1.0  0.43971  0.78622  0.33854  1.0000
  C   C106      1.0  0.43112  0.79851  0.34159  1.0000
  C   C107      1.0  0.37265  0.79999  0.38971  1.0000
  C   C108      1.0  0.35183  0.78698  0.39111  1.0000
  C   C109      1.0  0.33876  0.79295  0.35485  1.0000
  C   C110      1.0  0.34698  0.81260  0.32010  1.0000
  C   C111      1.0  0.36794  0.82580  0.31992  1.0000
  H   H72       1.0  0.43658  0.92369  0.36138  1.0000
  H   H73       1.0  0.41591  0.79153  0.35012  1.0000
  H   H74       1.0  0.43052  0.77102  0.34371  1.0000
  H   H75       1.0  0.38152  0.79479  0.41551  1.0000
  H   H76       1.0  0.34634  0.77285  0.41683  1.0000
  C   C112      1.0  0.40243  0.83168  0.34547  1.0000
  N   N20       1.0  0.41330  0.82233  0.34189  1.0000
  C   C113      1.0  0.43351  0.83171  0.33479  1.0000
  C   C114      1.0  0.43332  0.86274  0.33427  1.0000
  N   N21       1.0  0.41285  0.85206  0.34098  1.0000
  H   H77       1.0  0.41880  0.88799  0.35974  1.0000
  N   N22       1.0  0.31948  0.77912  0.35585  1.0000
  N   N23       1.0  0.47419  0.94743  0.33850  1.0000
  C   C115      1.0  0.82098  0.44252  0.34926  1.0000
  C   C116      1.0  0.78791  0.35068  0.34946  1.0000
  C   C117      1.0  0.80028  0.37156  0.35259  1.0000
  C   C118      1.0  0.80144  0.43159  0.38646  1.0000
  C   C119      1.0  0.78847  0.43943  0.38783  1.0000
  C   C120      1.0  0.79444  0.45844  0.35115  1.0000
  C   C121      1.0  0.81405  0.46978  0.31583  1.0000
  C   C122      1.0  0.82721  0.46196  0.31563  1.0000
  H   H78       1.0  0.79347  0.37980  0.36544  1.0000
  H   H79       1.0  0.77281  0.34470  0.35856  1.0000
  H   H80       1.0  0.79624  0.41757  0.41287  1.0000
  H   H81       1.0  0.77437  0.43087  0.41407  1.0000
  N   N24       1.0  0.82384  0.41317  0.34240  1.0000
  N   N25       1.0  0.78068  0.46397  0.35266  1.0000
  C   C123      1.0  0.56264  0.44259  0.32837  1.0000
  C   C124      1.0  0.56463  0.37988  0.34925  1.0000
  C   C125      1.0  0.54156  0.43235  0.31530  1.0000
  C   C126      1.0  0.53077  0.44270  0.31328  1.0000
  C   C127      1.0  0.54053  0.46365  0.32583  1.0000
  C   C128      1.0  0.65647  0.43865  0.34957  1.0000
  C   C129      1.0  0.63559  0.43013  0.35269  1.0000
  C   C130      1.0  0.57556  0.37127  0.38651  1.0000
  C   C131      1.0  0.56771  0.35045  0.38788  1.0000
  C   C132      1.0  0.54871  0.33742  0.35115  1.0000
  C   C133      1.0  0.53738  0.34569  0.31575  1.0000
  C   C134      1.0  0.54519  0.36666  0.31560  1.0000
  H   H82       1.0  0.51559  0.43472  0.30328  1.0000
  H   H83       1.0  0.62735  0.41508  0.36558  1.0000
  H   H84       1.0  0.66244  0.42952  0.35870  1.0000
  H   H85       1.0  0.58957  0.38008  0.41296  1.0000
  H   H86       1.0  0.57627  0.34492  0.41417  1.0000
  C   C135      1.0  0.57374  0.40114  0.34275  1.0000
  N   N26       1.0  0.59398  0.41208  0.34240  1.0000
  C   C136      1.0  0.60480  0.43232  0.33717  1.0000
  C   C137      1.0  0.57355  0.43202  0.33154  1.0000
  N   N27       1.0  0.56376  0.41153  0.33655  1.0000
  H   H87       1.0  0.53374  0.41715  0.30631  1.0000
  N   N28       1.0  0.54319  0.31813  0.35267  1.0000
  N   N29       1.0  0.52936  0.47246  0.32210  1.0000
  C   C138      1.0  0.56456  0.12146  0.32836  1.0000
  C   C139      1.0  0.62726  0.18617  0.34917  1.0000
  C   C140      1.0  0.57480  0.11062  0.31528  1.0000
  C   C141      1.0  0.56446  0.08948  0.31327  1.0000
  C   C142      1.0  0.54351  0.07829  0.32582  1.0000
  C   C143      1.0  0.56847  0.21921  0.34993  1.0000
  C   C144      1.0  0.57699  0.20684  0.35306  1.0000
  C   C145      1.0  0.63587  0.20572  0.38633  1.0000
  C   C146      1.0  0.65670  0.21869  0.38770  1.0000
  C   C147      1.0  0.66972  0.21271  0.35107  1.0000
  C   C148      1.0  0.66146  0.19310  0.31578  1.0000
  C   C149      1.0  0.64049  0.17995  0.31555  1.0000
  H   H88       1.0  0.57244  0.08228  0.30331  1.0000
  H   H89       1.0  0.59203  0.21365  0.36605  1.0000
  H   H90       1.0  0.57760  0.23431  0.35919  1.0000
  H   H91       1.0  0.62706  0.21092  0.41273  1.0000
  H   H92       1.0  0.66222  0.23279  0.41392  1.0000
  C   C150      1.0  0.60601  0.17401  0.34273  1.0000
  N   N30       1.0  0.59505  0.18330  0.34244  1.0000
  C   C151      1.0  0.57482  0.17388  0.33726  1.0000
  C   C152      1.0  0.57512  0.14294  0.33154  1.0000
  N   N31       1.0  0.59562  0.15365  0.33651  1.0000
  H   H93       1.0  0.59000  0.11800  0.30632  1.0000
  N   N32       1.0  0.68902  0.22647  0.35262  1.0000
  N   N33       1.0  0.53469  0.05831  0.32210  1.0000
  C   C153      1.0  0.51791  0.49536  0.34102  1.0000
  C   C154      1.0  0.51368  0.50462  0.41319  1.0000
  C   C155      1.0  0.50016  0.51187  0.40383  1.0000
  H   H94       1.0  0.52043  0.50611  0.47412  1.0000
  O   O10       1.0  0.49609  0.51973  0.47731  1.0000
  H   H95       1.0  0.50709  0.53370  0.48211  1.0000
  C   C156      1.0  0.53202  0.48927  0.35260  1.0000
  H   H96       1.0  0.54420  0.49796  0.38875  1.0000
  C   C157      1.0  0.51179  0.02395  0.34102  1.0000
  C   C158      1.0  0.50254  0.01047  0.41318  1.0000
  C   C159      1.0  0.49528  0.98969  0.40383  1.0000
  H   H97       1.0  0.50104  0.01572  0.47411  1.0000
  O   O11       1.0  0.48742  0.97777  0.47731  1.0000
  H   H98       1.0  0.47345  0.97479  0.48210  1.0000
  C   C160      1.0  0.51789  0.04415  0.35262  1.0000
  H   H99       1.0  0.50920  0.04765  0.38872  1.0000
  C   C161      1.0  0.27573  0.53236  0.43146  1.0000
  C   C162      1.0  0.25620  0.52927  0.42021  1.0000
  C   C163      1.0  0.28834  0.53528  0.35715  1.0000
  O   O12       1.0  0.24502  0.52715  0.49461  1.0000
  H   H100      1.0  0.28105  0.53348  0.49545  1.0000
  H   H101      1.0  0.24995  0.54072  0.51871  1.0000
  C   C164      1.0  0.30856  0.54218  0.37296  1.0000
  H   H102      1.0  0.31484  0.55144  0.42488  1.0000
  C   C165      1.0  0.47478  0.74477  0.43145  1.0000
  C   C166      1.0  0.47786  0.72833  0.42021  1.0000
  C   C167      1.0  0.47185  0.75446  0.35712  1.0000
  O   O13       1.0  0.47998  0.71927  0.49462  1.0000
  H   H103      1.0  0.47365  0.74897  0.49543  1.0000
  H   H104      1.0  0.46641  0.71062  0.51871  1.0000
  C   C168      1.0  0.46495  0.76778  0.37292  1.0000
  H   H105      1.0  0.45569  0.76480  0.42482  1.0000
  C   C169      1.0  0.26237  0.73141  0.43146  1.0000
  C   C170      1.0  0.27881  0.75094  0.42021  1.0000
  C   C171      1.0  0.25268  0.71880  0.35714  1.0000
  O   O14       1.0  0.28787  0.76212  0.49460  1.0000
  H   H106      1.0  0.25817  0.72609  0.49544  1.0000
  H   H107      1.0  0.29651  0.75719  0.51873  1.0000
  C   C172      1.0  0.23937  0.69858  0.37296  1.0000
  H   H108      1.0  0.24233  0.69230  0.42489  1.0000
  C   C173      1.0  0.73345  0.47380  0.43195  1.0000
  C   C174      1.0  0.75291  0.47679  0.41924  1.0000
  C   C175      1.0  0.72055  0.47073  0.35863  1.0000
  O   O15       1.0  0.76436  0.47903  0.49278  1.0000
  H   H109      1.0  0.72841  0.47287  0.49634  1.0000
  H   H110      1.0  0.75949  0.46551  0.51735  1.0000
  C   C176      1.0  0.70042  0.46400  0.37617  1.0000
  H   H111      1.0  0.69443  0.45527  0.42988  1.0000
  C   C177      1.0  0.53333  0.26106  0.43198  1.0000
  C   C178      1.0  0.53035  0.27753  0.41922  1.0000
  C   C179      1.0  0.53641  0.25122  0.35869  1.0000
  O   O16       1.0  0.52809  0.28673  0.49275  1.0000
  H   H112      1.0  0.53424  0.25694  0.49638  1.0000
  H   H113      1.0  0.54161  0.29538  0.51737  1.0000
  C   C180      1.0  0.54312  0.23781  0.37629  1.0000
  H   H114      1.0  0.55182  0.24053  0.43011  1.0000
  C   C181      1.0  0.74607  0.27370  0.43193  1.0000
  C   C182      1.0  0.72961  0.25425  0.41922  1.0000
  C   C183      1.0  0.75591  0.28660  0.35860  1.0000
  O   O17       1.0  0.72040  0.24280  0.49277  1.0000
  H   H115      1.0  0.75018  0.27875  0.49632  1.0000
  H   H116      1.0  0.71174  0.24767  0.51731  1.0000
  C   C184      1.0  0.76931  0.30673  0.37614  1.0000
  H   H117      1.0  0.76657  0.31273  0.42982  1.0000
  C   C185      1.0  0.91821  0.44559  0.33824  1.0000
  C   C186      1.0  0.89707  0.43478  0.33931  1.0000
  C   C187      1.0  0.82928  0.36828  0.31903  1.0000
  H   H118      1.0  0.92576  0.43790  0.34562  1.0000
  H   H119      1.0  0.89008  0.41961  0.34902  1.0000
  H   H120      1.0  0.84425  0.37430  0.30610  1.0000
  H   H121      1.0  0.84110  0.47029  0.28737  1.0000
  N   N34       1.0  0.85366  0.41306  0.33200  1.0000
  C   C188      1.0  0.99111  0.49909  0.25818  1.0000
  O   O18       1.0  0.97920  0.49503  0.18467  1.0000
  H   H122      1.0  0.97619  0.50600  0.17999  1.0000
  C   C189      1.0  0.88569  0.44451  0.32842  1.0000
  C   C190      1.0  0.89653  0.46559  0.31538  1.0000
  C   C191      1.0  0.91766  0.47638  0.31337  1.0000
  C   C192      1.0  0.92885  0.46662  0.32594  1.0000
  H   H123      1.0  0.92487  0.49156  0.30338  1.0000
  C   C193      1.0  0.83314  0.43341  0.34277  1.0000
  C   C194      1.0  0.83326  0.40235  0.33717  1.0000
  C   C195      1.0  0.86420  0.43360  0.33158  1.0000
  N   N35       1.0  0.85350  0.44338  0.33658  1.0000
  H   H124      1.0  0.88915  0.47341  0.30639  1.0000
  N   N36       1.0  0.94884  0.47779  0.32216  1.0000
  C   C196      1.0  0.98320  0.48924  0.34106  1.0000
  C   C197      1.0  0.99668  0.49347  0.41321  1.0000
  H   H125      1.0  0.99143  0.48672  0.47415  1.0000
  C   C198      1.0  0.96299  0.47513  0.35266  1.0000
  H   H126      1.0  0.95949  0.46295  0.38885  1.0000
