data_image0
_chemical_formula_structural       C5HNHCH4N2COHC2HCH3C3H2N2COHNHC3HNCHC2HNC6H2NCHC3HC3HC2N2COCH4CNCOHC5HNC2HNC2HCH2C2N2COCH4C2H2CHC4H2N2C2HNC2HCHCHNCNCOCH3CHCNCOHC2HC4HN2CHNC2HCHC2HCHN2CNCOCH3CHC2H2CHC4H2C4H2N3CHNC2HCH
_chemical_formula_sum              "C104 H72 N32 O8"
_cell_length_a       31.2682
_cell_length_b       31.2682
_cell_length_c       14.8232
_cell_angle_alpha    90
_cell_angle_beta     90
_cell_angle_gamma    90

_space_group_name_H-M_alt    "P 1"
_space_group_IT_number       1

loop_
  _space_group_symop_operation_xyz
  'x, y, z'

loop_
  _atom_site_type_symbol
  _atom_site_label
  _atom_site_symmetry_multiplicity
  _atom_site_fract_x
  _atom_site_fract_y
  _atom_site_fract_z
  _atom_site_occupancy
  C   C1        1.0  0.02303  0.05676  0.32816  1.0000
  C   C2        1.0  0.05457  0.08922  0.32824  1.0000
  C   C3        1.0  0.03266  0.01201  0.32932  1.0000
  C   C4        1.0  0.09781  0.07720  0.32910  1.0000
  C   C5        1.0  0.10983  0.03396  0.32998  1.0000
  H   H1        1.0  0.12101  0.10041  0.32889  1.0000
  N   N1        1.0  0.04673  0.13191  0.32750  1.0000
  H   H2        1.0  0.49234  0.06714  0.32747  1.0000
  C   C6        1.0  0.30334  0.09293  0.22654  1.0000
  H   H3        1.0  0.31721  0.12489  0.22905  1.0000
  H   H4        1.0  0.32360  0.07304  0.18349  1.0000
  H   H5        1.0  0.37089  0.03025  0.32298  1.0000
  H   H6        1.0  0.44477  0.01956  0.32806  1.0000
  N   N2        1.0  0.15252  0.02615  0.32997  1.0000
  N   N3        1.0  0.24173  0.03127  0.32448  1.0000
  C   C7        1.0  0.28495  0.03611  0.32153  1.0000
  O   O1        1.0  0.30146  0.07657  0.31716  1.0000
  H   H7        1.0  0.27144  0.09543  0.19681  1.0000
  C   C8        1.0  0.52303  0.05676  0.32816  1.0000
  C   C9        1.0  0.55457  0.08922  0.32824  1.0000
  H   H8        1.0  0.99234  0.06714  0.32747  1.0000
  C   C10       1.0  0.80333  0.09293  0.22654  1.0000
  H   H9        1.0  0.81721  0.12489  0.22905  1.0000
  H   H10       1.0  0.82360  0.07304  0.18349  1.0000
  H   H11       1.0  0.87089  0.03025  0.32298  1.0000
  C   C11       1.0  0.53266  0.01201  0.32932  1.0000
  C   C12       1.0  0.59781  0.07720  0.32910  1.0000
  C   C13       1.0  0.60983  0.03396  0.32998  1.0000
  H   H12       1.0  0.62100  0.10041  0.32889  1.0000
  H   H13       1.0  0.94477  0.01956  0.32806  1.0000
  N   N4        1.0  0.65252  0.02615  0.32997  1.0000
  N   N5        1.0  0.74173  0.03127  0.32448  1.0000
  C   C14       1.0  0.78494  0.03611  0.32153  1.0000
  O   O2        1.0  0.80146  0.07657  0.31716  1.0000
  H   H14       1.0  0.77144  0.09543  0.19681  1.0000
  N   N6        1.0  0.54673  0.13191  0.32750  1.0000
  H   H15       1.0  0.04020  0.42409  0.33043  1.0000
  C   C15       1.0  0.01272  0.20081  0.32565  1.0000
  C   C16       1.0  0.01075  0.15585  0.32522  1.0000
  C   C17       1.0  0.07740  0.00239  0.33035  1.0000
  H   H16       1.0  0.08781  0.47171  0.33098  1.0000
  N   N7        1.0  0.05124  0.22102  0.33075  1.0000
  C   C18       1.0  0.05591  0.26420  0.33235  1.0000
  H   H17       1.0  0.08592  0.27699  0.33642  1.0000
  C   C19       1.0  0.02303  0.55676  0.32816  1.0000
  C   C20       1.0  0.05457  0.58922  0.32824  1.0000
  H   H18       1.0  0.04020  0.92409  0.33043  1.0000
  N   N8        1.0  0.04673  0.63191  0.32750  1.0000
  C   C21       1.0  0.01272  0.70081  0.32565  1.0000
  C   C22       1.0  0.01075  0.65585  0.32522  1.0000
  C   C23       1.0  0.03266  0.51201  0.32932  1.0000
  C   C24       1.0  0.09781  0.57720  0.32910  1.0000
  C   C25       1.0  0.10983  0.53396  0.32998  1.0000
  C   C26       1.0  0.07740  0.50239  0.33035  1.0000
  H   H19       1.0  0.08781  0.97171  0.33098  1.0000
  H   H20       1.0  0.12101  0.60041  0.32889  1.0000
  N   N9        1.0  0.05124  0.72102  0.33075  1.0000
  C   C27       1.0  0.05591  0.76419  0.33235  1.0000
  H   H21       1.0  0.08592  0.77699  0.33642  1.0000
  C   C28       1.0  0.00951  0.43450  0.33010  1.0000
  C   C29       1.0  0.01914  0.29034  0.32931  1.0000
  C   C30       1.0  0.02161  0.33523  0.33125  1.0000
  H   H22       1.0  0.05089  0.34970  0.33425  1.0000
  C   C31       1.0  0.00951  0.93450  0.33010  1.0000
  C   C32       1.0  0.01914  0.79034  0.32931  1.0000
  C   C33       1.0  0.02161  0.83523  0.33125  1.0000
  H   H23       1.0  0.05089  0.84970  0.33425  1.0000
  C   C34       1.0  0.47794  0.40208  0.32976  1.0000
  C   C35       1.0  0.50952  0.43450  0.33010  1.0000
  N   N10       1.0  0.48576  0.35939  0.32963  1.0000
  N   N11       1.0  0.48064  0.27018  0.32393  1.0000
  C   C36       1.0  0.47580  0.22696  0.32094  1.0000
  O   O3        1.0  0.43535  0.21045  0.31649  1.0000
  C   C37       1.0  0.91903  0.20856  0.22583  1.0000
  H   H24       1.0  0.88707  0.19469  0.22827  1.0000
  H   H25       1.0  0.43894  0.18829  0.18284  1.0000
  H   H26       1.0  0.91655  0.24046  0.19609  1.0000
  H   H27       1.0  0.98166  0.14102  0.32248  1.0000
  C   C38       1.0  0.31109  0.99919  0.32616  1.0000
  N   N12       1.0  0.24173  0.53127  0.32448  1.0000
  C   C39       1.0  0.28495  0.53611  0.32153  1.0000
  O   O4        1.0  0.30146  0.57657  0.31716  1.0000
  H   H28       1.0  0.27144  0.59543  0.19681  1.0000
  C   C40       1.0  0.35606  0.00116  0.32569  1.0000
  C   C41       1.0  0.49989  0.47925  0.32932  1.0000
  C   C42       1.0  0.45515  0.48888  0.32840  1.0000
  C   C43       1.0  0.42269  0.45734  0.32841  1.0000
  C   C44       1.0  0.43470  0.41410  0.32905  1.0000
  H   H29       1.0  0.41150  0.39090  0.32884  1.0000
  N   N13       1.0  0.38000  0.46518  0.32781  1.0000
  C   C45       1.0  0.51914  0.29034  0.32931  1.0000
  C   C46       1.0  0.52161  0.33523  0.33125  1.0000
  H   H30       1.0  0.55089  0.34970  0.33425  1.0000
  N   N14       1.0  0.29089  0.96067  0.33119  1.0000
  C   C47       1.0  0.24771  0.95600  0.33278  1.0000
  C   C48       1.0  0.22157  0.49278  0.32979  1.0000
  H   H31       1.0  0.23492  0.92599  0.33678  1.0000
  C   C49       1.0  0.17668  0.49030  0.33168  1.0000
  H   H32       1.0  0.16220  0.46102  0.33463  1.0000
  H   H33       1.0  0.49234  0.56714  0.32747  1.0000
  C   C50       1.0  0.47794  0.90208  0.32976  1.0000
  C   C51       1.0  0.50952  0.93450  0.33010  1.0000
  N   N15       1.0  0.48576  0.85939  0.32963  1.0000
  N   N16       1.0  0.48064  0.77018  0.32393  1.0000
  C   C52       1.0  0.47580  0.72696  0.32094  1.0000
  O   O5        1.0  0.43535  0.71045  0.31649  1.0000
  C   C53       1.0  0.91903  0.70856  0.22583  1.0000
  H   H34       1.0  0.88707  0.69469  0.22827  1.0000
  H   H35       1.0  0.43894  0.68829  0.18284  1.0000
  H   H36       1.0  0.91655  0.74046  0.19609  1.0000
  H   H37       1.0  0.98166  0.64102  0.32248  1.0000
  C   C54       1.0  0.31109  0.49919  0.32616  1.0000
  C   C55       1.0  0.30334  0.59293  0.22654  1.0000
  H   H38       1.0  0.31721  0.62489  0.22905  1.0000
  H   H39       1.0  0.32360  0.57304  0.18349  1.0000
  C   C56       1.0  0.35606  0.50116  0.32569  1.0000
  H   H40       1.0  0.37089  0.53025  0.32298  1.0000
  C   C57       1.0  0.49989  0.97925  0.32932  1.0000
  C   C58       1.0  0.45515  0.98888  0.32840  1.0000
  C   C59       1.0  0.42269  0.95733  0.32841  1.0000
  C   C60       1.0  0.43470  0.91410  0.32905  1.0000
  H   H41       1.0  0.44477  0.51956  0.32806  1.0000
  H   H42       1.0  0.41150  0.89090  0.32884  1.0000
  N   N17       1.0  0.38000  0.96518  0.32781  1.0000
  N   N18       1.0  0.15252  0.52614  0.32997  1.0000
  C   C61       1.0  0.51914  0.79034  0.32931  1.0000
  C   C62       1.0  0.52161  0.83523  0.33125  1.0000
  H   H43       1.0  0.55089  0.84970  0.33425  1.0000
  N   N19       1.0  0.29089  0.46067  0.33119  1.0000
  C   C63       1.0  0.24771  0.45600  0.33278  1.0000
  C   C64       1.0  0.22157  0.99278  0.32979  1.0000
  H   H44       1.0  0.23492  0.42599  0.33678  1.0000
  C   C65       1.0  0.17668  0.99030  0.33168  1.0000
  H   H45       1.0  0.16220  0.96101  0.33463  1.0000
  C   C66       1.0  0.97794  0.40208  0.32976  1.0000
  H   H46       1.0  0.54019  0.42409  0.33043  1.0000
  N   N20       1.0  0.98576  0.35939  0.32963  1.0000
  C   C67       1.0  0.51272  0.20081  0.32565  1.0000
  N   N21       1.0  0.98064  0.27018  0.32393  1.0000
  C   C68       1.0  0.97580  0.22696  0.32094  1.0000
  O   O6        1.0  0.93535  0.21045  0.31649  1.0000
  C   C69       1.0  0.41903  0.20856  0.22583  1.0000
  H   H47       1.0  0.38707  0.19469  0.22827  1.0000
  H   H48       1.0  0.93894  0.18829  0.18284  1.0000
  H   H49       1.0  0.41655  0.24046  0.19609  1.0000
  C   C70       1.0  0.51075  0.15585  0.32522  1.0000
  H   H50       1.0  0.48166  0.14102  0.32248  1.0000
  C   C71       1.0  0.81109  0.99919  0.32616  1.0000
  N   N22       1.0  0.74173  0.53127  0.32448  1.0000
  C   C72       1.0  0.78494  0.53611  0.32153  1.0000
  O   O7        1.0  0.80146  0.57657  0.31716  1.0000
  H   H51       1.0  0.77144  0.59543  0.19681  1.0000
  C   C73       1.0  0.85606  0.00116  0.32569  1.0000
  C   C74       1.0  0.57740  0.00239  0.33035  1.0000
  H   H52       1.0  0.58781  0.47171  0.33098  1.0000
  C   C75       1.0  0.99989  0.47925  0.32932  1.0000
  C   C76       1.0  0.95515  0.48888  0.32840  1.0000
  C   C77       1.0  0.92269  0.45734  0.32841  1.0000
  C   C78       1.0  0.93470  0.41410  0.32905  1.0000
  H   H53       1.0  0.91150  0.39090  0.32884  1.0000
  N   N23       1.0  0.87999  0.46518  0.32781  1.0000
  N   N24       1.0  0.55124  0.22102  0.33075  1.0000
  C   C79       1.0  0.55591  0.26420  0.33235  1.0000
  H   H54       1.0  0.58592  0.27699  0.33642  1.0000
  N   N25       1.0  0.79088  0.96067  0.33119  1.0000
  C   C80       1.0  0.74771  0.95600  0.33278  1.0000
  C   C81       1.0  0.72157  0.49278  0.32979  1.0000
  H   H55       1.0  0.73492  0.92599  0.33678  1.0000
  C   C82       1.0  0.67668  0.49030  0.33168  1.0000
  H   H56       1.0  0.66220  0.46102  0.33463  1.0000
  C   C83       1.0  0.52303  0.55676  0.32816  1.0000
  C   C84       1.0  0.55457  0.58922  0.32824  1.0000
  H   H57       1.0  0.99234  0.56714  0.32747  1.0000
  C   C85       1.0  0.97794  0.90208  0.32976  1.0000
  H   H58       1.0  0.54019  0.92409  0.33043  1.0000
  N   N26       1.0  0.98576  0.85939  0.32963  1.0000
  N   N27       1.0  0.54673  0.63191  0.32750  1.0000
  C   C86       1.0  0.51272  0.70081  0.32565  1.0000
  N   N28       1.0  0.98064  0.77018  0.32393  1.0000
  C   C87       1.0  0.97580  0.72696  0.32094  1.0000
  O   O8        1.0  0.93535  0.71045  0.31649  1.0000
  C   C88       1.0  0.41903  0.70856  0.22583  1.0000
  H   H59       1.0  0.38707  0.69469  0.22827  1.0000
  H   H60       1.0  0.93894  0.68829  0.18284  1.0000
  H   H61       1.0  0.41655  0.74046  0.19609  1.0000
  C   C89       1.0  0.51075  0.65585  0.32522  1.0000
  H   H62       1.0  0.48166  0.64102  0.32248  1.0000
  C   C90       1.0  0.81109  0.49919  0.32616  1.0000
  C   C91       1.0  0.80333  0.59293  0.22654  1.0000
  H   H63       1.0  0.81721  0.62489  0.22905  1.0000
  H   H64       1.0  0.82360  0.57304  0.18349  1.0000
  C   C92       1.0  0.85606  0.50116  0.32569  1.0000
  H   H65       1.0  0.87089  0.53025  0.32298  1.0000
  C   C93       1.0  0.53266  0.51201  0.32932  1.0000
  C   C94       1.0  0.59781  0.57720  0.32910  1.0000
  C   C95       1.0  0.60983  0.53396  0.32998  1.0000
  C   C96       1.0  0.57740  0.50239  0.33035  1.0000
  H   H66       1.0  0.58781  0.97171  0.33098  1.0000
  H   H67       1.0  0.62100  0.60041  0.32889  1.0000
  C   C97       1.0  0.99989  0.97925  0.32932  1.0000
  C   C98       1.0  0.95515  0.98888  0.32840  1.0000
  C   C99       1.0  0.92269  0.95733  0.32841  1.0000
  C   C100      1.0  0.93470  0.91410  0.32905  1.0000
  H   H68       1.0  0.94477  0.51956  0.32806  1.0000
  H   H69       1.0  0.91150  0.89090  0.32884  1.0000
  N   N29       1.0  0.87999  0.96518  0.32781  1.0000
  N   N30       1.0  0.65252  0.52614  0.32997  1.0000
  N   N31       1.0  0.55124  0.72102  0.33075  1.0000
  C   C101      1.0  0.55591  0.76419  0.33235  1.0000
  H   H70       1.0  0.58592  0.77699  0.33642  1.0000
  N   N32       1.0  0.79088  0.46067  0.33119  1.0000
  C   C102      1.0  0.74771  0.45600  0.33278  1.0000
  C   C103      1.0  0.72157  0.99278  0.32979  1.0000
  H   H71       1.0  0.73492  0.42599  0.33678  1.0000
  C   C104      1.0  0.67668  0.99030  0.33168  1.0000
  H   H72       1.0  0.66220  0.96101  0.33463  1.0000
