data_image0
_chemical_formula_structural       C4H2C4H2C4H2NC18H12NC18H12C2NOCHC2NOCHC2NOCHC4H2C4H2C4H2NC18H12NC18H12C2NOCHC2NOCHC2NOCHC4H2C4H2C4H2NC18H12NC18H12C2NOCHC2NOCHC2NOCHC4H2C4H2C4H2NC18H12NC18H12C2NOCHC2NOCHC2NOCH
_chemical_formula_sum              "C228 H132 N20 O12"
_cell_length_a       50.6442
_cell_length_b       50.6442
_cell_length_c       14.6361
_cell_angle_alpha    90
_cell_angle_beta     90
_cell_angle_gamma    120

_space_group_name_H-M_alt    "P 1"
_space_group_IT_number       1

loop_
  _space_group_symop_operation_xyz
  'x, y, z'

loop_
  _atom_site_type_symbol
  _atom_site_label
  _atom_site_symmetry_multiplicity
  _atom_site_fract_x
  _atom_site_fract_y
  _atom_site_fract_z
  _atom_site_occupancy
  C   C1        1.0  0.28671  0.24563  0.36207  1.0000
  C   C2        1.0  0.25238  0.27907  0.36205  1.0000
  C   C3        1.0  0.25752  0.26640  0.28171  1.0000
  C   C4        1.0  0.27425  0.25081  0.28145  1.0000
  H   H1        1.0  0.27746  0.24350  0.21960  1.0000
  H   H2        1.0  0.24868  0.26788  0.22056  1.0000
  C   C5        1.0  0.28495  0.04553  0.36190  1.0000
  C   C6        1.0  0.25065  0.47776  0.36166  1.0000
  C   C7        1.0  0.26416  0.49547  0.28177  1.0000
  C   C8        1.0  0.28088  0.02779  0.28211  1.0000
  H   H3        1.0  0.29057  0.03819  0.22168  1.0000
  H   H4        1.0  0.26179  0.48502  0.22023  1.0000
  C   C9        1.0  0.48509  0.24513  0.35271  1.0000
  C   C10       1.0  0.05234  0.27873  0.35255  1.0000
  C   C11       1.0  0.03488  0.26638  0.27166  1.0000
  C   C12       1.0  0.50251  0.25021  0.27170  1.0000
  H   H5        1.0  0.49167  0.24137  0.21099  1.0000
  H   H6        1.0  0.04569  0.26835  0.21090  1.0000
  N   N1        1.0  0.18489  0.34469  0.35487  1.0000
  C   C13       1.0  0.20143  0.32836  0.35709  1.0000
  C   C14       1.0  0.20120  0.37761  0.35668  1.0000
  C   C15       1.0  0.15200  0.32799  0.35347  1.0000
  C   C16       1.0  0.13481  0.30934  0.42746  1.0000
  C   C17       1.0  0.10260  0.29311  0.42644  1.0000
  C   C18       1.0  0.08554  0.29514  0.35250  1.0000
  C   C19       1.0  0.10302  0.31410  0.27867  1.0000
  C   C20       1.0  0.13533  0.33000  0.27895  1.0000
  C   C21       1.0  0.21440  0.32394  0.27724  1.0000
  C   C22       1.0  0.23136  0.30867  0.27955  1.0000
  C   C23       1.0  0.23532  0.29550  0.36076  1.0000
  C   C24       1.0  0.22118  0.29937  0.43976  1.0000
  C   C25       1.0  0.20545  0.31590  0.43864  1.0000
  C   C26       1.0  0.22331  0.39524  0.29014  1.0000
  C   C27       1.0  0.23959  0.42745  0.29325  1.0000
  C   C28       1.0  0.23402  0.44435  0.36061  1.0000
  C   C29       1.0  0.21103  0.42626  0.42543  1.0000
  C   C30       1.0  0.19557  0.39398  0.42476  1.0000
  H   H7        1.0  0.24114  0.30773  0.21964  1.0000
  H   H8        1.0  0.21178  0.33215  0.21622  1.0000
  H   H9        1.0  0.19666  0.31858  0.49840  1.0000
  H   H10       1.0  0.22148  0.28968  0.50034  1.0000
  H   H11       1.0  0.14567  0.30734  0.48341  1.0000
  H   H12       1.0  0.09171  0.27918  0.48069  1.0000
  H   H13       1.0  0.22824  0.38472  0.23903  1.0000
  H   H14       1.0  0.25613  0.43838  0.24508  1.0000
  H   H15       1.0  0.20447  0.43630  0.47374  1.0000
  H   H16       1.0  0.17939  0.38229  0.47349  1.0000
  H   H17       1.0  0.14680  0.34349  0.22437  1.0000
  H   H18       1.0  0.09230  0.31709  0.22379  1.0000
  N   N2        1.0  0.35256  0.17851  0.35502  1.0000
  C   C31       1.0  0.33624  0.19511  0.35687  1.0000
  C   C32       1.0  0.33600  0.14565  0.35711  1.0000
  C   C33       1.0  0.38545  0.19471  0.35361  1.0000
  C   C34       1.0  0.40212  0.21357  0.27938  1.0000
  C   C35       1.0  0.43443  0.23000  0.27910  1.0000
  C   C36       1.0  0.45191  0.22833  0.35262  1.0000
  C   C37       1.0  0.43486  0.20903  0.42619  1.0000
  C   C38       1.0  0.40265  0.19306  0.42726  1.0000
  C   C39       1.0  0.31424  0.19073  0.29003  1.0000
  C   C40       1.0  0.29794  0.20664  0.29313  1.0000
  C   C41       1.0  0.30337  0.22893  0.36090  1.0000
  C   C42       1.0  0.32626  0.23378  0.42599  1.0000
  C   C43       1.0  0.34176  0.21700  0.42523  1.0000
  C   C44       1.0  0.32306  0.12829  0.27716  1.0000
  C   C45       1.0  0.30605  0.09606  0.27938  1.0000
  C   C46       1.0  0.30204  0.07895  0.36063  1.0000
  C   C47       1.0  0.31620  0.09689  0.43971  1.0000
  C   C48       1.0  0.33196  0.12914  0.43865  1.0000
  H   H19       1.0  0.28149  0.20118  0.24469  1.0000
  H   H20       1.0  0.30944  0.17540  0.23865  1.0000
  H   H21       1.0  0.35788  0.22143  0.47413  1.0000
  H   H22       1.0  0.33270  0.25033  0.47448  1.0000
  H   H23       1.0  0.39065  0.21573  0.22504  1.0000
  H   H24       1.0  0.44515  0.24385  0.22450  1.0000
  H   H25       1.0  0.32571  0.13915  0.21617  1.0000
  H   H26       1.0  0.29627  0.08529  0.21950  1.0000
  H   H27       1.0  0.31589  0.08679  0.50017  1.0000
  H   H28       1.0  0.34075  0.14059  0.49844  1.0000
  H   H29       1.0  0.39180  0.18005  0.48299  1.0000
  H   H30       1.0  0.44577  0.20586  0.48016  1.0000
  C   C49       1.0  0.28123  0.25784  0.44260  1.0000
  C   C50       1.0  0.26533  0.27404  0.44184  1.0000
  N   N3        1.0  0.26577  0.28307  0.52764  1.0000
  O   O1        1.0  0.28972  0.25534  0.52915  1.0000
  C   C51       1.0  0.28040  0.27220  0.57734  1.0000
  H   H31       1.0  0.28331  0.27533  0.64632  1.0000
  C   C52       1.0  0.27093  0.02780  0.44141  1.0000
  C   C53       1.0  0.25513  0.49570  0.44099  1.0000
  N   N4        1.0  0.24656  0.48691  0.52694  1.0000
  O   O2        1.0  0.27034  0.03859  0.52634  1.0000
  C   C54       1.0  0.25596  0.01237  0.57592  1.0000
  H   H32       1.0  0.25189  0.01211  0.64433  1.0000
  C   C55       1.0  0.50261  0.25758  0.43334  1.0000
  C   C56       1.0  0.03462  0.27361  0.43266  1.0000
  N   N5        1.0  0.04351  0.28278  0.51819  1.0000
  O   O3        1.0  0.49161  0.25701  0.51885  1.0000
  C   C57       1.0  0.51797  0.27236  0.56772  1.0000
  H   H33       1.0  0.51823  0.27652  0.63607  1.0000
  C   C58       1.0  0.28671  0.74563  0.36207  1.0000
  C   C59       1.0  0.25238  0.77907  0.36205  1.0000
  C   C60       1.0  0.25752  0.76640  0.28171  1.0000
  C   C61       1.0  0.27425  0.75081  0.28145  1.0000
  H   H34       1.0  0.27746  0.74350  0.21960  1.0000
  H   H35       1.0  0.24868  0.76788  0.22056  1.0000
  C   C62       1.0  0.28495  0.54553  0.36190  1.0000
  C   C63       1.0  0.25065  0.97776  0.36166  1.0000
  C   C64       1.0  0.26416  0.99547  0.28176  1.0000
  C   C65       1.0  0.28088  0.52779  0.28211  1.0000
  H   H36       1.0  0.29057  0.53819  0.22169  1.0000
  H   H37       1.0  0.26179  0.98502  0.22022  1.0000
  C   C66       1.0  0.48509  0.74513  0.35271  1.0000
  C   C67       1.0  0.05234  0.77873  0.35256  1.0000
  C   C68       1.0  0.03488  0.76638  0.27166  1.0000
  C   C69       1.0  0.50251  0.75021  0.27170  1.0000
  H   H38       1.0  0.49166  0.74137  0.21099  1.0000
  H   H39       1.0  0.04569  0.76835  0.21091  1.0000
  N   N6        1.0  0.18489  0.84469  0.35487  1.0000
  C   C70       1.0  0.20143  0.82836  0.35709  1.0000
  C   C71       1.0  0.20120  0.87761  0.35668  1.0000
  C   C72       1.0  0.15200  0.82799  0.35347  1.0000
  C   C73       1.0  0.13481  0.80934  0.42746  1.0000
  C   C74       1.0  0.10260  0.79311  0.42644  1.0000
  C   C75       1.0  0.08554  0.79514  0.35250  1.0000
  C   C76       1.0  0.10302  0.81410  0.27867  1.0000
  C   C77       1.0  0.13533  0.83000  0.27895  1.0000
  C   C78       1.0  0.21440  0.82394  0.27724  1.0000
  C   C79       1.0  0.23136  0.80867  0.27955  1.0000
  C   C80       1.0  0.23532  0.79550  0.36076  1.0000
  C   C81       1.0  0.22118  0.79937  0.43976  1.0000
  C   C82       1.0  0.20545  0.81590  0.43864  1.0000
  C   C83       1.0  0.22331  0.89524  0.29014  1.0000
  C   C84       1.0  0.23959  0.92745  0.29325  1.0000
  C   C85       1.0  0.23402  0.94435  0.36061  1.0000
  C   C86       1.0  0.21104  0.92626  0.42543  1.0000
  C   C87       1.0  0.19557  0.89398  0.42476  1.0000
  H   H40       1.0  0.24114  0.80773  0.21964  1.0000
  H   H41       1.0  0.21178  0.83215  0.21622  1.0000
  H   H42       1.0  0.19666  0.81858  0.49840  1.0000
  H   H43       1.0  0.22148  0.78968  0.50034  1.0000
  H   H44       1.0  0.14567  0.80734  0.48341  1.0000
  H   H45       1.0  0.09171  0.77918  0.48069  1.0000
  H   H46       1.0  0.22824  0.88472  0.23902  1.0000
  H   H47       1.0  0.25613  0.93838  0.24508  1.0000
  H   H48       1.0  0.20447  0.93630  0.47374  1.0000
  H   H49       1.0  0.17939  0.88230  0.47349  1.0000
  H   H50       1.0  0.14680  0.84349  0.22437  1.0000
  H   H51       1.0  0.09229  0.81708  0.22379  1.0000
  N   N7        1.0  0.35256  0.67851  0.35502  1.0000
  C   C88       1.0  0.33624  0.69511  0.35687  1.0000
  C   C89       1.0  0.33600  0.64565  0.35711  1.0000
  C   C90       1.0  0.38545  0.69471  0.35361  1.0000
  C   C91       1.0  0.40212  0.71358  0.27938  1.0000
  C   C92       1.0  0.43443  0.73000  0.27910  1.0000
  C   C93       1.0  0.45191  0.72833  0.35262  1.0000
  C   C94       1.0  0.43486  0.70903  0.42619  1.0000
  C   C95       1.0  0.40265  0.69305  0.42726  1.0000
  C   C96       1.0  0.31424  0.69073  0.29003  1.0000
  C   C97       1.0  0.29794  0.70664  0.29313  1.0000
  C   C98       1.0  0.30337  0.72893  0.36091  1.0000
  C   C99       1.0  0.32626  0.73378  0.42599  1.0000
  C   C100      1.0  0.34176  0.71700  0.42523  1.0000
  C   C101      1.0  0.32306  0.62829  0.27716  1.0000
  C   C102      1.0  0.30605  0.59606  0.27938  1.0000
  C   C103      1.0  0.30204  0.57895  0.36063  1.0000
  C   C104      1.0  0.31620  0.59689  0.43971  1.0000
  C   C105      1.0  0.33195  0.62914  0.43865  1.0000
  H   H52       1.0  0.28149  0.70118  0.24469  1.0000
  H   H53       1.0  0.30943  0.67540  0.23865  1.0000
  H   H54       1.0  0.35788  0.72143  0.47413  1.0000
  H   H55       1.0  0.33270  0.75033  0.47448  1.0000
  H   H56       1.0  0.39065  0.71573  0.22505  1.0000
  H   H57       1.0  0.44515  0.74385  0.22450  1.0000
  H   H58       1.0  0.32571  0.63915  0.21617  1.0000
  H   H59       1.0  0.29627  0.58529  0.21950  1.0000
  H   H60       1.0  0.31589  0.58679  0.50018  1.0000
  H   H61       1.0  0.34075  0.64059  0.49844  1.0000
  H   H62       1.0  0.39180  0.68005  0.48299  1.0000
  H   H63       1.0  0.44577  0.70586  0.48016  1.0000
  C   C106      1.0  0.28123  0.75784  0.44260  1.0000
  C   C107      1.0  0.26533  0.77404  0.44185  1.0000
  N   N8        1.0  0.26577  0.78307  0.52764  1.0000
  O   O4        1.0  0.28972  0.75534  0.52915  1.0000
  C   C108      1.0  0.28040  0.77220  0.57734  1.0000
  H   H64       1.0  0.28331  0.77533  0.64632  1.0000
  C   C109      1.0  0.27093  0.52780  0.44141  1.0000
  C   C110      1.0  0.25513  0.99571  0.44099  1.0000
  N   N9        1.0  0.24656  0.98691  0.52694  1.0000
  O   O5        1.0  0.27034  0.53859  0.52633  1.0000
  C   C111      1.0  0.25596  0.51237  0.57592  1.0000
  H   H65       1.0  0.25189  0.51211  0.64433  1.0000
  C   C112      1.0  0.50261  0.75758  0.43334  1.0000
  C   C113      1.0  0.03462  0.77361  0.43266  1.0000
  N   N10       1.0  0.04351  0.78278  0.51819  1.0000
  O   O6        1.0  0.49161  0.75701  0.51885  1.0000
  C   C114      1.0  0.51797  0.77236  0.56772  1.0000
  H   H66       1.0  0.51823  0.77652  0.63607  1.0000
  C   C115      1.0  0.78671  0.24563  0.36207  1.0000
  C   C116      1.0  0.75238  0.27907  0.36205  1.0000
  C   C117      1.0  0.75752  0.26640  0.28171  1.0000
  C   C118      1.0  0.77425  0.25081  0.28145  1.0000
  H   H67       1.0  0.77746  0.24350  0.21960  1.0000
  H   H68       1.0  0.74868  0.26788  0.22056  1.0000
  C   C119      1.0  0.78495  0.04553  0.36190  1.0000
  C   C120      1.0  0.75065  0.47776  0.36166  1.0000
  C   C121      1.0  0.76416  0.49547  0.28177  1.0000
  C   C122      1.0  0.78088  0.02779  0.28211  1.0000
  H   H69       1.0  0.79057  0.03819  0.22168  1.0000
  H   H70       1.0  0.76179  0.48502  0.22023  1.0000
  C   C123      1.0  0.98510  0.24513  0.35271  1.0000
  C   C124      1.0  0.55234  0.27873  0.35255  1.0000
  C   C125      1.0  0.53488  0.26638  0.27166  1.0000
  C   C126      1.0  0.00251  0.25021  0.27170  1.0000
  H   H71       1.0  0.99167  0.24137  0.21099  1.0000
  H   H72       1.0  0.54569  0.26835  0.21090  1.0000
  N   N11       1.0  0.68489  0.34469  0.35487  1.0000
  C   C127      1.0  0.70143  0.32836  0.35709  1.0000
  C   C128      1.0  0.70120  0.37761  0.35668  1.0000
  C   C129      1.0  0.65200  0.32799  0.35347  1.0000
  C   C130      1.0  0.63481  0.30934  0.42746  1.0000
  C   C131      1.0  0.60260  0.29311  0.42644  1.0000
  C   C132      1.0  0.58554  0.29514  0.35250  1.0000
  C   C133      1.0  0.60302  0.31410  0.27867  1.0000
  C   C134      1.0  0.63533  0.33000  0.27895  1.0000
  C   C135      1.0  0.71440  0.32394  0.27724  1.0000
  C   C136      1.0  0.73136  0.30867  0.27955  1.0000
  C   C137      1.0  0.73532  0.29550  0.36076  1.0000
  C   C138      1.0  0.72118  0.29937  0.43976  1.0000
  C   C139      1.0  0.70545  0.31590  0.43864  1.0000
  C   C140      1.0  0.72331  0.39524  0.29014  1.0000
  C   C141      1.0  0.73959  0.42745  0.29325  1.0000
  C   C142      1.0  0.73402  0.44435  0.36061  1.0000
  C   C143      1.0  0.71103  0.42626  0.42543  1.0000
  C   C144      1.0  0.69557  0.39398  0.42476  1.0000
  H   H73       1.0  0.74114  0.30773  0.21964  1.0000
  H   H74       1.0  0.71178  0.33215  0.21622  1.0000
  H   H75       1.0  0.69666  0.31858  0.49840  1.0000
  H   H76       1.0  0.72148  0.28968  0.50034  1.0000
  H   H77       1.0  0.64567  0.30734  0.48341  1.0000
  H   H78       1.0  0.59171  0.27918  0.48069  1.0000
  H   H79       1.0  0.72824  0.38472  0.23903  1.0000
  H   H80       1.0  0.75613  0.43838  0.24508  1.0000
  H   H81       1.0  0.70447  0.43630  0.47374  1.0000
  H   H82       1.0  0.67939  0.38229  0.47349  1.0000
  H   H83       1.0  0.64680  0.34349  0.22437  1.0000
  H   H84       1.0  0.59230  0.31709  0.22379  1.0000
  N   N12       1.0  0.85256  0.17851  0.35502  1.0000
  C   C145      1.0  0.83624  0.19511  0.35687  1.0000
  C   C146      1.0  0.83600  0.14565  0.35711  1.0000
  C   C147      1.0  0.88545  0.19471  0.35361  1.0000
  C   C148      1.0  0.90212  0.21357  0.27938  1.0000
  C   C149      1.0  0.93443  0.23000  0.27910  1.0000
  C   C150      1.0  0.95191  0.22833  0.35262  1.0000
  C   C151      1.0  0.93486  0.20903  0.42619  1.0000
  C   C152      1.0  0.90265  0.19306  0.42726  1.0000
  C   C153      1.0  0.81424  0.19073  0.29003  1.0000
  C   C154      1.0  0.79794  0.20664  0.29313  1.0000
  C   C155      1.0  0.80337  0.22893  0.36090  1.0000
  C   C156      1.0  0.82626  0.23378  0.42599  1.0000
  C   C157      1.0  0.84176  0.21700  0.42523  1.0000
  C   C158      1.0  0.82306  0.12829  0.27716  1.0000
  C   C159      1.0  0.80605  0.09606  0.27938  1.0000
  C   C160      1.0  0.80204  0.07895  0.36063  1.0000
  C   C161      1.0  0.81620  0.09689  0.43971  1.0000
  C   C162      1.0  0.83196  0.12914  0.43865  1.0000
  H   H85       1.0  0.78149  0.20118  0.24469  1.0000
  H   H86       1.0  0.80943  0.17540  0.23865  1.0000
  H   H87       1.0  0.85788  0.22143  0.47413  1.0000
  H   H88       1.0  0.83270  0.25033  0.47448  1.0000
  H   H89       1.0  0.89065  0.21573  0.22504  1.0000
  H   H90       1.0  0.94515  0.24385  0.22450  1.0000
  H   H91       1.0  0.82571  0.13915  0.21617  1.0000
  H   H92       1.0  0.79627  0.08529  0.21950  1.0000
  H   H93       1.0  0.81589  0.08679  0.50017  1.0000
  H   H94       1.0  0.84075  0.14059  0.49844  1.0000
  H   H95       1.0  0.89180  0.18005  0.48299  1.0000
  H   H96       1.0  0.94577  0.20586  0.48016  1.0000
  C   C163      1.0  0.78123  0.25784  0.44260  1.0000
  C   C164      1.0  0.76533  0.27404  0.44184  1.0000
  N   N13       1.0  0.76577  0.28307  0.52764  1.0000
  O   O7        1.0  0.78972  0.25534  0.52915  1.0000
  C   C165      1.0  0.78040  0.27220  0.57734  1.0000
  H   H97       1.0  0.78331  0.27533  0.64632  1.0000
  C   C166      1.0  0.77093  0.02780  0.44141  1.0000
  C   C167      1.0  0.75513  0.49570  0.44099  1.0000
  N   N14       1.0  0.74656  0.48691  0.52694  1.0000
  O   O8        1.0  0.77034  0.03859  0.52634  1.0000
  C   C168      1.0  0.75596  0.01237  0.57592  1.0000
  H   H98       1.0  0.75189  0.01211  0.64433  1.0000
  C   C169      1.0  0.00261  0.25758  0.43334  1.0000
  C   C170      1.0  0.53462  0.27361  0.43266  1.0000
  N   N15       1.0  0.54351  0.28278  0.51819  1.0000
  O   O9        1.0  0.99161  0.25701  0.51885  1.0000
  C   C171      1.0  0.01797  0.27236  0.56772  1.0000
  H   H99       1.0  0.01823  0.27652  0.63607  1.0000
  C   C172      1.0  0.78671  0.74563  0.36207  1.0000
  C   C173      1.0  0.75238  0.77907  0.36205  1.0000
  C   C174      1.0  0.75752  0.76640  0.28171  1.0000
  C   C175      1.0  0.77425  0.75081  0.28145  1.0000
  H   H100      1.0  0.77746  0.74350  0.21960  1.0000
  H   H101      1.0  0.74867  0.76788  0.22056  1.0000
  C   C176      1.0  0.78495  0.54553  0.36190  1.0000
  C   C177      1.0  0.75065  0.97776  0.36166  1.0000
  C   C178      1.0  0.76416  0.99547  0.28176  1.0000
  C   C179      1.0  0.78088  0.52779  0.28211  1.0000
  H   H102      1.0  0.79057  0.53819  0.22169  1.0000
  H   H103      1.0  0.76179  0.98502  0.22022  1.0000
  C   C180      1.0  0.98510  0.74513  0.35271  1.0000
  C   C181      1.0  0.55234  0.77873  0.35256  1.0000
  C   C182      1.0  0.53488  0.76638  0.27166  1.0000
  C   C183      1.0  0.00251  0.75021  0.27170  1.0000
  H   H104      1.0  0.99167  0.74137  0.21099  1.0000
  H   H105      1.0  0.54569  0.76835  0.21091  1.0000
  N   N16       1.0  0.68489  0.84469  0.35487  1.0000
  C   C184      1.0  0.70143  0.82836  0.35709  1.0000
  C   C185      1.0  0.70120  0.87761  0.35668  1.0000
  C   C186      1.0  0.65200  0.82799  0.35347  1.0000
  C   C187      1.0  0.63481  0.80934  0.42746  1.0000
  C   C188      1.0  0.60260  0.79311  0.42644  1.0000
  C   C189      1.0  0.58554  0.79514  0.35250  1.0000
  C   C190      1.0  0.60302  0.81410  0.27867  1.0000
  C   C191      1.0  0.63532  0.83000  0.27895  1.0000
  C   C192      1.0  0.71440  0.82394  0.27724  1.0000
  C   C193      1.0  0.73136  0.80867  0.27955  1.0000
  C   C194      1.0  0.73532  0.79550  0.36076  1.0000
  C   C195      1.0  0.72118  0.79937  0.43976  1.0000
  C   C196      1.0  0.70545  0.81590  0.43864  1.0000
  C   C197      1.0  0.72331  0.89524  0.29014  1.0000
  C   C198      1.0  0.73959  0.92745  0.29325  1.0000
  C   C199      1.0  0.73402  0.94435  0.36061  1.0000
  C   C200      1.0  0.71103  0.92626  0.42543  1.0000
  C   C201      1.0  0.69557  0.89398  0.42476  1.0000
  H   H106      1.0  0.74114  0.80773  0.21964  1.0000
  H   H107      1.0  0.71178  0.83215  0.21622  1.0000
  H   H108      1.0  0.69666  0.81858  0.49840  1.0000
  H   H109      1.0  0.72148  0.78968  0.50034  1.0000
  H   H110      1.0  0.64567  0.80734  0.48341  1.0000
  H   H111      1.0  0.59171  0.77918  0.48069  1.0000
  H   H112      1.0  0.72824  0.88472  0.23902  1.0000
  H   H113      1.0  0.75613  0.93838  0.24508  1.0000
  H   H114      1.0  0.70447  0.93630  0.47374  1.0000
  H   H115      1.0  0.67939  0.88230  0.47349  1.0000
  H   H116      1.0  0.64680  0.84349  0.22437  1.0000
  H   H117      1.0  0.59230  0.81708  0.22379  1.0000
  N   N17       1.0  0.85256  0.67851  0.35502  1.0000
  C   C202      1.0  0.83624  0.69511  0.35687  1.0000
  C   C203      1.0  0.83600  0.64565  0.35711  1.0000
  C   C204      1.0  0.88545  0.69471  0.35361  1.0000
  C   C205      1.0  0.90212  0.71358  0.27938  1.0000
  C   C206      1.0  0.93443  0.73000  0.27910  1.0000
  C   C207      1.0  0.95191  0.72833  0.35262  1.0000
  C   C208      1.0  0.93486  0.70903  0.42619  1.0000
  C   C209      1.0  0.90265  0.69305  0.42726  1.0000
  C   C210      1.0  0.81424  0.69073  0.29003  1.0000
  C   C211      1.0  0.79794  0.70664  0.29313  1.0000
  C   C212      1.0  0.80337  0.72893  0.36091  1.0000
  C   C213      1.0  0.82626  0.73378  0.42599  1.0000
  C   C214      1.0  0.84176  0.71700  0.42523  1.0000
  C   C215      1.0  0.82306  0.62829  0.27716  1.0000
  C   C216      1.0  0.80605  0.59606  0.27938  1.0000
  C   C217      1.0  0.80204  0.57895  0.36063  1.0000
  C   C218      1.0  0.81620  0.59689  0.43971  1.0000
  C   C219      1.0  0.83196  0.62914  0.43865  1.0000
  H   H118      1.0  0.78149  0.70118  0.24469  1.0000
  H   H119      1.0  0.80943  0.67540  0.23865  1.0000
  H   H120      1.0  0.85788  0.72143  0.47413  1.0000
  H   H121      1.0  0.83270  0.75033  0.47448  1.0000
  H   H122      1.0  0.89065  0.71573  0.22505  1.0000
  H   H123      1.0  0.94515  0.74385  0.22450  1.0000
  H   H124      1.0  0.82571  0.63915  0.21617  1.0000
  H   H125      1.0  0.79627  0.58529  0.21950  1.0000
  H   H126      1.0  0.81589  0.58679  0.50018  1.0000
  H   H127      1.0  0.84075  0.64059  0.49844  1.0000
  H   H128      1.0  0.89180  0.68005  0.48299  1.0000
  H   H129      1.0  0.94577  0.70586  0.48016  1.0000
  C   C220      1.0  0.78123  0.75784  0.44260  1.0000
  C   C221      1.0  0.76533  0.77404  0.44185  1.0000
  N   N18       1.0  0.76577  0.78307  0.52764  1.0000
  O   O10       1.0  0.78972  0.75534  0.52915  1.0000
  C   C222      1.0  0.78040  0.77220  0.57734  1.0000
  H   H130      1.0  0.78331  0.77533  0.64632  1.0000
  C   C223      1.0  0.77093  0.52780  0.44141  1.0000
  C   C224      1.0  0.75513  0.99571  0.44099  1.0000
  N   N19       1.0  0.74656  0.98691  0.52694  1.0000
  O   O11       1.0  0.77034  0.53859  0.52633  1.0000
  C   C225      1.0  0.75596  0.51237  0.57592  1.0000
  H   H131      1.0  0.75189  0.51211  0.64433  1.0000
  C   C226      1.0  0.00261  0.75758  0.43334  1.0000
  C   C227      1.0  0.53462  0.77361  0.43266  1.0000
  N   N20       1.0  0.54351  0.78278  0.51819  1.0000
  O   O12       1.0  0.99161  0.75701  0.51885  1.0000
  C   C228      1.0  0.01797  0.77236  0.56772  1.0000
  H   H132      1.0  0.01823  0.77652  0.63607  1.0000
