data_image0
_chemical_formula_structural       C4HC2O2C3HNO2NHC3HNO2NHC6HC5HCH3C2O2C3HNO2NHC3HNO2NHC4HC2O2C3HNO2NHC3HNO2NHC6HC5HCH3C2O2C3HNO2NHC3HNO2NHC4HC2O2C3HNO2NHC3HNO2NHC6HC5HCH3C2O2C3HNO2NHC3HNO2NHC4HC2O2C3HNO2NHC3HNO2NHC6HC5HCH3C2O2C3HNO2NHC3HNO2NH
_chemical_formula_sum              "C128 H56 O48 N32"
_cell_length_a       30.6536
_cell_length_b       30.6536
_cell_length_c       14.9936
_cell_angle_alpha    90
_cell_angle_beta     90
_cell_angle_gamma    90

_space_group_name_H-M_alt    "P 1"
_space_group_IT_number       1

loop_
  _space_group_symop_operation_xyz
  'x, y, z'

loop_
  _atom_site_type_symbol
  _atom_site_label
  _atom_site_symmetry_multiplicity
  _atom_site_fract_x
  _atom_site_fract_y
  _atom_site_fract_z
  _atom_site_occupancy
  C   C1        1.0  0.46836  0.08930  0.25653  1.0000
  C   C2        1.0  0.49797  0.05936  0.29705  1.0000
  C   C3        1.0  0.00245  0.44109  0.37050  1.0000
  C   C4        1.0  0.03205  0.41115  0.41103  1.0000
  H   H1        1.0  0.44719  0.39894  0.36755  1.0000
  C   C5        1.0  0.47588  0.13500  0.24832  1.0000
  C   C6        1.0  0.02458  0.36544  0.41896  1.0000
  O   O1        1.0  0.45411  0.15661  0.18298  1.0000
  O   O2        1.0  0.04652  0.34371  0.48394  1.0000
  C   C7        1.0  0.00506  0.29708  0.34110  1.0000
  C   C8        1.0  0.00571  0.27617  0.25638  1.0000
  C   C9        1.0  0.00151  0.23029  0.25049  1.0000
  H   H2        1.0  0.00528  0.21643  0.18908  1.0000
  N   N1        1.0  0.01297  0.30104  0.17801  1.0000
  O   O3        1.0  0.04779  0.29038  0.13948  1.0000
  O   O4        1.0  0.98188  0.29746  0.12385  1.0000
  N   N2        1.0  0.00980  0.34156  0.34785  1.0000
  H   H3        1.0  0.00638  0.35799  0.29270  1.0000
  C   C10       1.0  0.20335  0.99525  0.34126  1.0000
  C   C11       1.0  0.22427  0.99482  0.25653  1.0000
  C   C12       1.0  0.27014  0.99916  0.25067  1.0000
  H   H4        1.0  0.28400  0.99551  0.18923  1.0000
  N   N3        1.0  0.19941  0.98772  0.17807  1.0000
  O   O5        1.0  0.21015  0.95303  0.13914  1.0000
  O   O6        1.0  0.20292  0.01897  0.12427  1.0000
  N   N4        1.0  0.15888  0.99047  0.34795  1.0000
  H   H5        1.0  0.14246  0.99388  0.29277  1.0000
  C   C13       1.0  0.48496  0.01550  0.31516  1.0000
  C   C14       1.0  0.44107  0.00257  0.29711  1.0000
  C   C15       1.0  0.41116  0.03221  0.25661  1.0000
  C   C16       1.0  0.42697  0.07356  0.23026  1.0000
  C   C17       1.0  0.42924  0.45888  0.31509  1.0000
  C   C18       1.0  0.04167  0.07113  0.31505  1.0000
  H   H6        1.0  0.40503  0.09559  0.20531  1.0000
  C   C19       1.0  0.01547  0.48496  0.35242  1.0000
  C   C20       1.0  0.07344  0.42689  0.43729  1.0000
  C   C21       1.0  0.08925  0.46825  0.41102  1.0000
  C   C22       1.0  0.05934  0.49790  0.37050  1.0000
  C   C23       1.0  0.45876  0.42932  0.35244  1.0000
  H   H7        1.0  0.09544  0.40489  0.46218  1.0000
  C   C24       1.0  0.07118  0.04158  0.35246  1.0000
  H   H8        1.0  0.39885  0.44736  0.30001  1.0000
  H   H9        1.0  0.10157  0.05310  0.36754  1.0000
  H   H10       1.0  0.05323  0.10151  0.29996  1.0000
  C   C25       1.0  0.36543  0.02483  0.24871  1.0000
  C   C26       1.0  0.13498  0.47574  0.41904  1.0000
  O   O7        1.0  0.34371  0.04686  0.18387  1.0000
  O   O8        1.0  0.15644  0.45386  0.48445  1.0000
  C   C27       1.0  0.99538  0.20336  0.32618  1.0000
  C   C28       1.0  0.99472  0.22427  0.41091  1.0000
  C   C29       1.0  0.99891  0.27015  0.41680  1.0000
  H   H11       1.0  0.99517  0.28401  0.47822  1.0000
  N   N5        1.0  0.98749  0.19940  0.48929  1.0000
  O   O9        1.0  0.95267  0.21004  0.52785  1.0000
  O   O10       1.0  0.01859  0.20299  0.54342  1.0000
  N   N6        1.0  0.99064  0.15888  0.31946  1.0000
  H   H12       1.0  0.99399  0.14245  0.37464  1.0000
  C   C30       1.0  0.29706  0.00512  0.32643  1.0000
  C   C31       1.0  0.27615  0.00552  0.41116  1.0000
  C   C32       1.0  0.23028  0.00124  0.41701  1.0000
  H   H13       1.0  0.21643  0.00481  0.47847  1.0000
  N   N7        1.0  0.30101  0.01256  0.48962  1.0000
  O   O11       1.0  0.29031  0.04725  0.52862  1.0000
  O   O12       1.0  0.29749  0.98130  0.54337  1.0000
  N   N8        1.0  0.34153  0.00994  0.31970  1.0000
  H   H14       1.0  0.35796  0.00645  0.37485  1.0000
  C   C33       1.0  0.46836  0.58930  0.25653  1.0000
  C   C34       1.0  0.49797  0.55936  0.29705  1.0000
  C   C35       1.0  0.00245  0.94109  0.37050  1.0000
  C   C36       1.0  0.03205  0.91115  0.41103  1.0000
  H   H15       1.0  0.44719  0.89894  0.36755  1.0000
  C   C37       1.0  0.47588  0.63500  0.24832  1.0000
  C   C38       1.0  0.02458  0.86544  0.41896  1.0000
  O   O13       1.0  0.45411  0.65661  0.18298  1.0000
  O   O14       1.0  0.04652  0.84372  0.48394  1.0000
  C   C39       1.0  0.00506  0.79708  0.34110  1.0000
  C   C40       1.0  0.00571  0.77617  0.25638  1.0000
  C   C41       1.0  0.00151  0.73029  0.25049  1.0000
  H   H16       1.0  0.00528  0.71643  0.18908  1.0000
  N   N9        1.0  0.01297  0.80104  0.17801  1.0000
  O   O15       1.0  0.04779  0.79038  0.13948  1.0000
  O   O16       1.0  0.98188  0.79746  0.12385  1.0000
  N   N10       1.0  0.00980  0.84156  0.34785  1.0000
  H   H17       1.0  0.00638  0.85799  0.29270  1.0000
  C   C42       1.0  0.20335  0.49525  0.34126  1.0000
  C   C43       1.0  0.22427  0.49482  0.25653  1.0000
  C   C44       1.0  0.27014  0.49916  0.25067  1.0000
  H   H18       1.0  0.28400  0.49552  0.18923  1.0000
  N   N11       1.0  0.19941  0.48772  0.17807  1.0000
  O   O17       1.0  0.21015  0.45303  0.13914  1.0000
  O   O18       1.0  0.20292  0.51897  0.12427  1.0000
  N   N12       1.0  0.15888  0.49047  0.34795  1.0000
  H   H19       1.0  0.14246  0.49388  0.29277  1.0000
  C   C45       1.0  0.48496  0.51551  0.31516  1.0000
  C   C46       1.0  0.44107  0.50256  0.29711  1.0000
  C   C47       1.0  0.41116  0.53221  0.25661  1.0000
  C   C48       1.0  0.42697  0.57355  0.23026  1.0000
  C   C49       1.0  0.42924  0.95888  0.31509  1.0000
  C   C50       1.0  0.04167  0.57113  0.31505  1.0000
  H   H20       1.0  0.40503  0.59559  0.20531  1.0000
  C   C51       1.0  0.01547  0.98496  0.35242  1.0000
  C   C52       1.0  0.07344  0.92689  0.43729  1.0000
  C   C53       1.0  0.08925  0.96825  0.41102  1.0000
  C   C54       1.0  0.05934  0.99790  0.37050  1.0000
  C   C55       1.0  0.45876  0.92932  0.35244  1.0000
  H   H21       1.0  0.09544  0.90489  0.46218  1.0000
  C   C56       1.0  0.07118  0.54158  0.35246  1.0000
  H   H22       1.0  0.39885  0.94736  0.30001  1.0000
  H   H23       1.0  0.10157  0.55310  0.36754  1.0000
  H   H24       1.0  0.05323  0.60151  0.29996  1.0000
  C   C57       1.0  0.36543  0.52483  0.24871  1.0000
  C   C58       1.0  0.13498  0.97574  0.41904  1.0000
  O   O19       1.0  0.34371  0.54686  0.18387  1.0000
  O   O20       1.0  0.15644  0.95386  0.48445  1.0000
  C   C59       1.0  0.99538  0.70336  0.32618  1.0000
  C   C60       1.0  0.99472  0.72427  0.41091  1.0000
  C   C61       1.0  0.99891  0.77015  0.41680  1.0000
  H   H25       1.0  0.99517  0.78401  0.47822  1.0000
  N   N13       1.0  0.98749  0.69940  0.48929  1.0000
  O   O21       1.0  0.95267  0.71004  0.52785  1.0000
  O   O22       1.0  0.01859  0.70298  0.54342  1.0000
  N   N14       1.0  0.99064  0.65888  0.31946  1.0000
  H   H26       1.0  0.99399  0.64245  0.37464  1.0000
  C   C62       1.0  0.29706  0.50513  0.32643  1.0000
  C   C63       1.0  0.27615  0.50552  0.41116  1.0000
  C   C64       1.0  0.23028  0.50124  0.41701  1.0000
  H   H27       1.0  0.21643  0.50480  0.47847  1.0000
  N   N15       1.0  0.30101  0.51256  0.48962  1.0000
  O   O23       1.0  0.29031  0.54725  0.52862  1.0000
  O   O24       1.0  0.29749  0.48130  0.54337  1.0000
  N   N16       1.0  0.34153  0.50993  0.31970  1.0000
  H   H28       1.0  0.35796  0.50645  0.37485  1.0000
  C   C65       1.0  0.96836  0.08930  0.25653  1.0000
  C   C66       1.0  0.99797  0.05936  0.29705  1.0000
  C   C67       1.0  0.50245  0.44109  0.37050  1.0000
  C   C68       1.0  0.53205  0.41115  0.41103  1.0000
  H   H29       1.0  0.94719  0.39894  0.36755  1.0000
  C   C69       1.0  0.97588  0.13500  0.24832  1.0000
  C   C70       1.0  0.52458  0.36544  0.41896  1.0000
  O   O25       1.0  0.95410  0.15661  0.18298  1.0000
  O   O26       1.0  0.54652  0.34371  0.48394  1.0000
  C   C71       1.0  0.50506  0.29708  0.34110  1.0000
  C   C72       1.0  0.50571  0.27617  0.25638  1.0000
  C   C73       1.0  0.50151  0.23029  0.25049  1.0000
  H   H30       1.0  0.50528  0.21643  0.18908  1.0000
  N   N17       1.0  0.51296  0.30104  0.17801  1.0000
  O   O27       1.0  0.54779  0.29038  0.13948  1.0000
  O   O28       1.0  0.48187  0.29746  0.12385  1.0000
  N   N18       1.0  0.50980  0.34156  0.34785  1.0000
  H   H31       1.0  0.50638  0.35799  0.29270  1.0000
  C   C74       1.0  0.70335  0.99525  0.34126  1.0000
  C   C75       1.0  0.72426  0.99482  0.25653  1.0000
  C   C76       1.0  0.77014  0.99916  0.25067  1.0000
  H   H32       1.0  0.78400  0.99551  0.18923  1.0000
  N   N19       1.0  0.69941  0.98772  0.17807  1.0000
  O   O29       1.0  0.71015  0.95303  0.13914  1.0000
  O   O30       1.0  0.70292  0.01897  0.12427  1.0000
  N   N20       1.0  0.65888  0.99047  0.34795  1.0000
  H   H33       1.0  0.64246  0.99388  0.29277  1.0000
  C   C77       1.0  0.98496  0.01550  0.31516  1.0000
  C   C78       1.0  0.94107  0.00257  0.29711  1.0000
  C   C79       1.0  0.91116  0.03221  0.25661  1.0000
  C   C80       1.0  0.92698  0.07356  0.23026  1.0000
  C   C81       1.0  0.92924  0.45888  0.31509  1.0000
  C   C82       1.0  0.54167  0.07113  0.31505  1.0000
  H   H34       1.0  0.90503  0.09559  0.20531  1.0000
  C   C83       1.0  0.51546  0.48496  0.35242  1.0000
  C   C84       1.0  0.57344  0.42689  0.43729  1.0000
  C   C85       1.0  0.58925  0.46825  0.41102  1.0000
  C   C86       1.0  0.55934  0.49790  0.37050  1.0000
  C   C87       1.0  0.95876  0.42932  0.35244  1.0000
  H   H35       1.0  0.59544  0.40489  0.46218  1.0000
  C   C88       1.0  0.57118  0.04158  0.35246  1.0000
  H   H36       1.0  0.89885  0.44736  0.30001  1.0000
  H   H37       1.0  0.60157  0.05310  0.36754  1.0000
  H   H38       1.0  0.55323  0.10151  0.29996  1.0000
  C   C89       1.0  0.86543  0.02483  0.24871  1.0000
  C   C90       1.0  0.63498  0.47574  0.41904  1.0000
  O   O31       1.0  0.84371  0.04686  0.18387  1.0000
  O   O32       1.0  0.65644  0.45386  0.48445  1.0000
  C   C91       1.0  0.49538  0.20336  0.32618  1.0000
  C   C92       1.0  0.49472  0.22427  0.41091  1.0000
  C   C93       1.0  0.49891  0.27015  0.41680  1.0000
  H   H39       1.0  0.49517  0.28401  0.47822  1.0000
  N   N21       1.0  0.48749  0.19940  0.48929  1.0000
  O   O33       1.0  0.45267  0.21004  0.52785  1.0000
  O   O34       1.0  0.51859  0.20299  0.54342  1.0000
  N   N22       1.0  0.49065  0.15888  0.31946  1.0000
  H   H40       1.0  0.49399  0.14245  0.37464  1.0000
  C   C94       1.0  0.79706  0.00512  0.32643  1.0000
  C   C95       1.0  0.77615  0.00552  0.41116  1.0000
  C   C96       1.0  0.73028  0.00124  0.41701  1.0000
  H   H41       1.0  0.71643  0.00481  0.47847  1.0000
  N   N23       1.0  0.80102  0.01256  0.48962  1.0000
  O   O35       1.0  0.79031  0.04725  0.52862  1.0000
  O   O36       1.0  0.79749  0.98130  0.54337  1.0000
  N   N24       1.0  0.84153  0.00994  0.31970  1.0000
  H   H42       1.0  0.85796  0.00645  0.37485  1.0000
  C   C97       1.0  0.96836  0.58930  0.25653  1.0000
  C   C98       1.0  0.99797  0.55936  0.29705  1.0000
  C   C99       1.0  0.50245  0.94109  0.37050  1.0000
  C   C100      1.0  0.53205  0.91115  0.41103  1.0000
  H   H43       1.0  0.94719  0.89894  0.36755  1.0000
  C   C101      1.0  0.97588  0.63500  0.24832  1.0000
  C   C102      1.0  0.52458  0.86544  0.41896  1.0000
  O   O37       1.0  0.95410  0.65661  0.18298  1.0000
  O   O38       1.0  0.54652  0.84372  0.48394  1.0000
  C   C103      1.0  0.50506  0.79708  0.34110  1.0000
  C   C104      1.0  0.50571  0.77617  0.25638  1.0000
  C   C105      1.0  0.50151  0.73029  0.25049  1.0000
  H   H44       1.0  0.50528  0.71643  0.18908  1.0000
  N   N25       1.0  0.51296  0.80104  0.17801  1.0000
  O   O39       1.0  0.54779  0.79038  0.13948  1.0000
  O   O40       1.0  0.48187  0.79746  0.12385  1.0000
  N   N26       1.0  0.50980  0.84156  0.34785  1.0000
  H   H45       1.0  0.50638  0.85799  0.29270  1.0000
  C   C106      1.0  0.70335  0.49525  0.34126  1.0000
  C   C107      1.0  0.72426  0.49482  0.25653  1.0000
  C   C108      1.0  0.77014  0.49916  0.25067  1.0000
  H   H46       1.0  0.78400  0.49552  0.18923  1.0000
  N   N27       1.0  0.69941  0.48772  0.17807  1.0000
  O   O41       1.0  0.71015  0.45303  0.13914  1.0000
  O   O42       1.0  0.70292  0.51897  0.12427  1.0000
  N   N28       1.0  0.65888  0.49047  0.34795  1.0000
  H   H47       1.0  0.64246  0.49388  0.29277  1.0000
  C   C109      1.0  0.98496  0.51551  0.31516  1.0000
  C   C110      1.0  0.94107  0.50256  0.29711  1.0000
  C   C111      1.0  0.91116  0.53221  0.25661  1.0000
  C   C112      1.0  0.92698  0.57355  0.23026  1.0000
  C   C113      1.0  0.92924  0.95888  0.31509  1.0000
  C   C114      1.0  0.54167  0.57113  0.31505  1.0000
  H   H48       1.0  0.90503  0.59559  0.20531  1.0000
  C   C115      1.0  0.51546  0.98496  0.35242  1.0000
  C   C116      1.0  0.57344  0.92689  0.43729  1.0000
  C   C117      1.0  0.58925  0.96825  0.41102  1.0000
  C   C118      1.0  0.55934  0.99790  0.37050  1.0000
  C   C119      1.0  0.95876  0.92932  0.35244  1.0000
  H   H49       1.0  0.59544  0.90489  0.46218  1.0000
  C   C120      1.0  0.57118  0.54158  0.35246  1.0000
  H   H50       1.0  0.89885  0.94736  0.30001  1.0000
  H   H51       1.0  0.60157  0.55310  0.36754  1.0000
  H   H52       1.0  0.55323  0.60151  0.29996  1.0000
  C   C121      1.0  0.86543  0.52483  0.24871  1.0000
  C   C122      1.0  0.63498  0.97574  0.41904  1.0000
  O   O43       1.0  0.84371  0.54686  0.18387  1.0000
  O   O44       1.0  0.65644  0.95386  0.48445  1.0000
  C   C123      1.0  0.49538  0.70336  0.32618  1.0000
  C   C124      1.0  0.49472  0.72427  0.41091  1.0000
  C   C125      1.0  0.49891  0.77015  0.41680  1.0000
  H   H53       1.0  0.49517  0.78401  0.47822  1.0000
  N   N29       1.0  0.48749  0.69940  0.48929  1.0000
  O   O45       1.0  0.45267  0.71004  0.52785  1.0000
  O   O46       1.0  0.51859  0.70298  0.54342  1.0000
  N   N30       1.0  0.49065  0.65888  0.31946  1.0000
  H   H54       1.0  0.49399  0.64245  0.37464  1.0000
  C   C126      1.0  0.79706  0.50513  0.32643  1.0000
  C   C127      1.0  0.77615  0.50552  0.41116  1.0000
  C   C128      1.0  0.73028  0.50124  0.41701  1.0000
  H   H55       1.0  0.71643  0.50480  0.47847  1.0000
  N   N31       1.0  0.80102  0.51256  0.48962  1.0000
  O   O47       1.0  0.79031  0.54725  0.52862  1.0000
  O   O48       1.0  0.79749  0.48130  0.54337  1.0000
  N   N32       1.0  0.84153  0.50993  0.31970  1.0000
  H   H56       1.0  0.85796  0.50645  0.37485  1.0000
