data_image0
_chemical_formula_structural       CHCN2C3H2NC5H3NC5H3C5NH3C5NH3C5NH3C5NH3C5NH3C5NH3CNCNCNC18H12CNCNCNC18H12CNCNCNC18H12CNCNCNC18H12CNCNCNC18H12CNCNCNC18H12C5H3C5NH3C5NH3NC5H3NC5H3NC5H3NC5H3NC5H3NC5H3
_chemical_formula_sum              "C216 H126 N36"
_cell_length_a       76.0208
_cell_length_b       76.0208
_cell_length_c       14.9846
_cell_angle_alpha    90
_cell_angle_beta     90
_cell_angle_gamma    120

_space_group_name_H-M_alt    "P 1"
_space_group_IT_number       1

loop_
  _space_group_symop_operation_xyz
  'x, y, z'

loop_
  _atom_site_type_symbol
  _atom_site_label
  _atom_site_symmetry_multiplicity
  _atom_site_fract_x
  _atom_site_fract_y
  _atom_site_fract_z
  _atom_site_occupancy
  C   C1        1.0  0.01161  0.50593  0.33189  1.0000
  H   H1        1.0  0.01500  0.50765  0.19021  1.0000
  C   C2        1.0  0.02243  0.51136  0.25014  1.0000
  N   N1        1.0  0.02276  0.51149  0.40859  1.0000
  N   N2        1.0  0.97879  0.48952  0.25962  1.0000
  C   C3        1.0  0.95819  0.47922  0.25654  1.0000
  C   C4        1.0  0.04381  0.52205  0.25030  1.0000
  C   C5        1.0  0.05461  0.52743  0.33161  1.0000
  H   H2        1.0  0.05143  0.52587  0.19072  1.0000
  H   H3        1.0  0.95111  0.47567  0.19583  1.0000
  N   N3        1.0  0.51176  0.48952  0.25963  1.0000
  C   C6        1.0  0.52206  0.47922  0.25654  1.0000
  C   C7        1.0  0.49535  0.50592  0.33190  1.0000
  C   C8        1.0  0.48993  0.51132  0.25014  1.0000
  C   C9        1.0  0.47924  0.52201  0.25030  1.0000
  C   C10       1.0  0.47385  0.52742  0.33163  1.0000
  H   H4        1.0  0.49364  0.50760  0.19022  1.0000
  H   H5        1.0  0.47542  0.52581  0.19073  1.0000
  H   H6        1.0  0.52560  0.47568  0.19583  1.0000
  N   N4        1.0  0.51176  0.02250  0.25963  1.0000
  C   C11       1.0  0.52206  0.04310  0.25656  1.0000
  C   C12       1.0  0.49535  0.98968  0.33189  1.0000
  C   C13       1.0  0.48995  0.97886  0.25013  1.0000
  C   C14       1.0  0.47926  0.95748  0.25028  1.0000
  C   C15       1.0  0.47385  0.94668  0.33161  1.0000
  H   H7        1.0  0.49368  0.98630  0.19020  1.0000
  H   H8        1.0  0.47547  0.94987  0.19071  1.0000
  H   H9        1.0  0.52560  0.05018  0.19584  1.0000
  C   C16       1.0  0.22047  0.53213  0.33251  1.0000
  C   C17       1.0  0.22836  0.52968  0.25119  1.0000
  C   C18       1.0  0.24469  0.52590  0.25093  1.0000
  C   C19       1.0  0.25367  0.52507  0.33256  1.0000
  C   C20       1.0  0.30213  0.53024  0.25672  1.0000
  N   N5        1.0  0.28298  0.52722  0.26000  1.0000
  H   H10       1.0  0.30919  0.53281  0.19614  1.0000
  H   H11       1.0  0.22314  0.53190  0.19165  1.0000
  H   H12       1.0  0.25072  0.52518  0.19096  1.0000
  C   C21       1.0  0.46920  0.68859  0.33246  1.0000
  C   C22       1.0  0.47160  0.69893  0.25117  1.0000
  C   C23       1.0  0.47535  0.71904  0.25091  1.0000
  C   C24       1.0  0.47620  0.72884  0.33255  1.0000
  C   C25       1.0  0.47095  0.77209  0.25684  1.0000
  N   N6        1.0  0.47397  0.75596  0.26007  1.0000
  H   H13       1.0  0.46835  0.77656  0.19629  1.0000
  H   H14       1.0  0.46940  0.69151  0.19160  1.0000
  H   H15       1.0  0.47608  0.72579  0.19094  1.0000
  C   C26       1.0  0.31268  0.78085  0.33253  1.0000
  C   C27       1.0  0.30236  0.77293  0.25118  1.0000
  C   C28       1.0  0.28225  0.75659  0.25092  1.0000
  C   C29       1.0  0.27242  0.74764  0.33256  1.0000
  C   C30       1.0  0.22918  0.69915  0.25684  1.0000
  N   N7        1.0  0.24530  0.71830  0.26007  1.0000
  H   H16       1.0  0.22470  0.69207  0.19628  1.0000
  H   H17       1.0  0.30982  0.77807  0.19165  1.0000
  H   H18       1.0  0.27554  0.75050  0.19095  1.0000
  C   C31       1.0  0.78112  0.46893  0.33246  1.0000
  C   C32       1.0  0.77317  0.47135  0.25118  1.0000
  C   C33       1.0  0.75683  0.47512  0.25096  1.0000
  C   C34       1.0  0.74787  0.47595  0.33262  1.0000
  C   C35       1.0  0.69943  0.47083  0.25676  1.0000
  N   N8        1.0  0.71857  0.47383  0.26005  1.0000
  H   H19       1.0  0.69236  0.46824  0.19621  1.0000
  H   H20       1.0  0.77836  0.46911  0.19160  1.0000
  H   H21       1.0  0.75078  0.47580  0.19098  1.0000
  C   C36       1.0  0.53239  0.31244  0.33242  1.0000
  C   C37       1.0  0.52989  0.30207  0.25113  1.0000
  C   C38       1.0  0.52611  0.28195  0.25091  1.0000
  C   C39       1.0  0.52533  0.27218  0.33256  1.0000
  C   C40       1.0  0.53045  0.22886  0.25665  1.0000
  N   N9        1.0  0.52743  0.24499  0.25997  1.0000
  H   H22       1.0  0.53299  0.22435  0.19604  1.0000
  H   H23       1.0  0.53207  0.30949  0.19156  1.0000
  H   H24       1.0  0.52535  0.27518  0.19095  1.0000
  C   C41       1.0  0.68885  0.22016  0.33237  1.0000
  C   C42       1.0  0.69922  0.22808  0.25111  1.0000
  C   C43       1.0  0.71932  0.24443  0.25090  1.0000
  C   C44       1.0  0.72910  0.25341  0.33254  1.0000
  C   C45       1.0  0.77236  0.30189  0.25673  1.0000
  N   N10       1.0  0.75624  0.28274  0.26001  1.0000
  H   H25       1.0  0.77686  0.30895  0.19615  1.0000
  H   H26       1.0  0.69182  0.22284  0.19152  1.0000
  H   H27       1.0  0.72610  0.25043  0.19093  1.0000
  C   C46       1.0  0.17264  0.60221  0.33494  1.0000
  N   N11       1.0  0.15198  0.59146  0.33478  1.0000
  C   C47       1.0  0.14121  0.57073  0.33451  1.0000
  N   N12       1.0  0.15199  0.56078  0.33440  1.0000
  C   C48       1.0  0.17264  0.57069  0.33462  1.0000
  N   N13       1.0  0.18227  0.59127  0.33485  1.0000
  C   C49       1.0  0.11951  0.55988  0.33414  1.0000
  C   C50       1.0  0.10831  0.57024  0.33376  1.0000
  C   C51       1.0  0.08693  0.55958  0.33308  1.0000
  C   C52       1.0  0.07606  0.53816  0.33282  1.0000
  C   C53       1.0  0.08693  0.52761  0.33328  1.0000
  C   C54       1.0  0.10831  0.53833  0.33395  1.0000
  C   C55       1.0  0.18422  0.62388  0.33514  1.0000
  C   C56       1.0  0.17491  0.63605  0.33672  1.0000
  C   C57       1.0  0.18663  0.65745  0.33727  1.0000
  C   C58       1.0  0.20803  0.66723  0.33593  1.0000
  C   C59       1.0  0.21748  0.65531  0.33428  1.0000
  C   C60       1.0  0.20576  0.63404  0.33392  1.0000
  C   C61       1.0  0.18422  0.56060  0.33440  1.0000
  C   C62       1.0  0.20577  0.57199  0.33557  1.0000
  C   C63       1.0  0.21749  0.56244  0.33514  1.0000
  C   C64       1.0  0.20805  0.54107  0.33346  1.0000
  C   C65       1.0  0.18664  0.52945  0.33218  1.0000
  C   C66       1.0  0.17491  0.53912  0.33280  1.0000
  H   H28       1.0  0.17947  0.66581  0.33859  1.0000
  H   H29       1.0  0.15943  0.62945  0.33773  1.0000
  H   H30       1.0  0.23299  0.66202  0.33351  1.0000
  H   H31       1.0  0.21337  0.62612  0.33278  1.0000
  H   H32       1.0  0.21337  0.58752  0.33672  1.0000
  H   H33       1.0  0.23300  0.57125  0.33586  1.0000
  H   H34       1.0  0.15943  0.53024  0.33182  1.0000
  H   H35       1.0  0.17948  0.51392  0.33085  1.0000
  H   H36       1.0  0.11559  0.53008  0.33417  1.0000
  H   H37       1.0  0.07938  0.51206  0.33300  1.0000
  H   H38       1.0  0.07937  0.56757  0.33265  1.0000
  H   H39       1.0  0.11559  0.58576  0.33383  1.0000
  C   C67       1.0  0.39908  0.57068  0.33498  1.0000
  N   N14       1.0  0.40983  0.56077  0.33482  1.0000
  C   C68       1.0  0.43055  0.57073  0.33455  1.0000
  N   N15       1.0  0.44051  0.59145  0.33443  1.0000
  C   C69       1.0  0.43060  0.60220  0.33464  1.0000
  N   N16       1.0  0.41003  0.59126  0.33488  1.0000
  C   C70       1.0  0.44140  0.55987  0.33418  1.0000
  C   C71       1.0  0.43105  0.53832  0.33380  1.0000
  C   C72       1.0  0.44171  0.52760  0.33310  1.0000
  C   C73       1.0  0.46313  0.53815  0.33284  1.0000
  C   C74       1.0  0.47368  0.55957  0.33329  1.0000
  C   C75       1.0  0.46295  0.57023  0.33397  1.0000
  C   C76       1.0  0.37741  0.56059  0.33519  1.0000
  C   C77       1.0  0.36524  0.53911  0.33663  1.0000
  C   C78       1.0  0.34384  0.52943  0.33712  1.0000
  C   C79       1.0  0.33406  0.54106  0.33591  1.0000
  C   C80       1.0  0.34598  0.56242  0.33439  1.0000
  C   C81       1.0  0.36725  0.57197  0.33408  1.0000
  C   C82       1.0  0.44070  0.62387  0.33439  1.0000
  C   C83       1.0  0.42932  0.63404  0.33541  1.0000
  C   C84       1.0  0.43888  0.65531  0.33495  1.0000
  C   C85       1.0  0.46024  0.66722  0.33340  1.0000
  C   C86       1.0  0.47186  0.65744  0.33229  1.0000
  C   C87       1.0  0.46218  0.63603  0.33292  1.0000
  H   H40       1.0  0.33547  0.51391  0.33831  1.0000
  H   H41       1.0  0.37184  0.53023  0.33753  1.0000
  H   H42       1.0  0.33927  0.57123  0.33368  1.0000
  H   H43       1.0  0.37518  0.58751  0.33302  1.0000
  H   H44       1.0  0.41379  0.62611  0.33646  1.0000
  H   H45       1.0  0.43007  0.66202  0.33557  1.0000
  H   H46       1.0  0.47106  0.62943  0.33206  1.0000
  H   H47       1.0  0.48739  0.66580  0.33107  1.0000
  H   H48       1.0  0.47120  0.58575  0.33419  1.0000
  H   H49       1.0  0.48923  0.56756  0.33300  1.0000
  H   H50       1.0  0.43371  0.51205  0.33268  1.0000
  H   H51       1.0  0.41552  0.53007  0.33387  1.0000
  C   C88       1.0  0.43059  0.82865  0.33494  1.0000
  N   N17       1.0  0.44050  0.84931  0.33478  1.0000
  C   C89       1.0  0.43054  0.86008  0.33451  1.0000
  N   N18       1.0  0.40982  0.84931  0.33439  1.0000
  C   C90       1.0  0.39907  0.82865  0.33460  1.0000
  N   N19       1.0  0.41002  0.81902  0.33484  1.0000
  C   C91       1.0  0.44140  0.88178  0.33414  1.0000
  C   C92       1.0  0.46295  0.89298  0.33376  1.0000
  C   C93       1.0  0.47367  0.91436  0.33307  1.0000
  C   C94       1.0  0.46312  0.92523  0.33280  1.0000
  C   C95       1.0  0.44170  0.91436  0.33326  1.0000
  C   C96       1.0  0.43104  0.89298  0.33393  1.0000
  C   C97       1.0  0.44068  0.81707  0.33516  1.0000
  C   C98       1.0  0.46216  0.82639  0.33669  1.0000
  C   C99       1.0  0.47184  0.81466  0.33725  1.0000
  C   C100      1.0  0.46022  0.79325  0.33595  1.0000
  C   C101      1.0  0.43885  0.78381  0.33434  1.0000
  C   C102      1.0  0.42930  0.79553  0.33399  1.0000
  C   C103      1.0  0.37740  0.81707  0.33437  1.0000
  C   C104      1.0  0.36724  0.79553  0.33539  1.0000
  C   C105      1.0  0.34597  0.78381  0.33495  1.0000
  C   C106      1.0  0.33405  0.79326  0.33342  1.0000
  C   C107      1.0  0.34383  0.81466  0.33232  1.0000
  C   C108      1.0  0.36523  0.82639  0.33292  1.0000
  H   H52       1.0  0.48736  0.82182  0.33852  1.0000
  H   H53       1.0  0.47105  0.84187  0.33767  1.0000
  H   H54       1.0  0.43004  0.76830  0.33361  1.0000
  H   H55       1.0  0.41377  0.78792  0.33288  1.0000
  H   H56       1.0  0.37517  0.78792  0.33642  1.0000
  H   H57       1.0  0.33926  0.76830  0.33557  1.0000
  H   H58       1.0  0.37183  0.84187  0.33208  1.0000
  H   H59       1.0  0.33547  0.82182  0.33113  1.0000
  H   H60       1.0  0.41552  0.88570  0.33415  1.0000
  H   H61       1.0  0.43371  0.92192  0.33298  1.0000
  H   H62       1.0  0.48922  0.92192  0.33266  1.0000
  H   H63       1.0  0.47120  0.88570  0.33384  1.0000
  C   C109      1.0  0.82891  0.39883  0.33426  1.0000
  N   N20       1.0  0.84957  0.40957  0.33431  1.0000
  C   C110      1.0  0.86034  0.43030  0.33410  1.0000
  N   N21       1.0  0.84957  0.44026  0.33391  1.0000
  C   C111      1.0  0.82892  0.43035  0.33390  1.0000
  N   N22       1.0  0.81929  0.40978  0.33408  1.0000
  C   C112      1.0  0.88205  0.44115  0.33432  1.0000
  C   C113      1.0  0.89324  0.43079  0.33450  1.0000
  C   C114      1.0  0.91462  0.44145  0.33507  1.0000
  C   C115      1.0  0.92550  0.46287  0.33543  1.0000
  C   C116      1.0  0.91463  0.47342  0.33517  1.0000
  C   C117      1.0  0.89324  0.46270  0.33460  1.0000
  C   C118      1.0  0.81733  0.37716  0.33458  1.0000
  C   C119      1.0  0.82663  0.36498  0.33607  1.0000
  C   C120      1.0  0.81490  0.34358  0.33677  1.0000
  C   C121      1.0  0.79349  0.33381  0.33573  1.0000
  C   C122      1.0  0.78406  0.34573  0.33418  1.0000
  C   C123      1.0  0.79578  0.36701  0.33364  1.0000
  C   C124      1.0  0.81734  0.44044  0.33378  1.0000
  C   C125      1.0  0.79580  0.42906  0.33502  1.0000
  C   C126      1.0  0.78408  0.43862  0.33478  1.0000
  C   C127      1.0  0.79353  0.45998  0.33320  1.0000
  C   C128      1.0  0.81493  0.47160  0.33185  1.0000
  C   C129      1.0  0.82665  0.46192  0.33228  1.0000
  H   H64       1.0  0.82205  0.33521  0.33799  1.0000
  H   H65       1.0  0.84211  0.37157  0.33686  1.0000
  H   H66       1.0  0.76854  0.33903  0.33361  1.0000
  H   H67       1.0  0.78818  0.37494  0.33259  1.0000
  H   H68       1.0  0.78819  0.41353  0.33612  1.0000
  H   H69       1.0  0.76857  0.42981  0.33558  1.0000
  H   H70       1.0  0.84213  0.47080  0.33127  1.0000
  H   H71       1.0  0.82209  0.48713  0.33061  1.0000
  H   H72       1.0  0.88597  0.47095  0.33454  1.0000
  H   H73       1.0  0.92218  0.48897  0.33555  1.0000
  H   H74       1.0  0.92218  0.43345  0.33537  1.0000
  H   H75       1.0  0.88597  0.41527  0.33436  1.0000
  C   C130      1.0  0.60246  0.43035  0.33424  1.0000
  N   N23       1.0  0.59171  0.44025  0.33430  1.0000
  C   C131      1.0  0.57099  0.43029  0.33410  1.0000
  N   N24       1.0  0.56104  0.40957  0.33392  1.0000
  C   C132      1.0  0.57094  0.39882  0.33392  1.0000
  N   N25       1.0  0.59152  0.40977  0.33408  1.0000
  C   C133      1.0  0.56013  0.44114  0.33432  1.0000
  C   C134      1.0  0.57049  0.46269  0.33449  1.0000
  C   C135      1.0  0.55983  0.47341  0.33506  1.0000
  C   C136      1.0  0.53841  0.46287  0.33543  1.0000
  C   C137      1.0  0.52786  0.44145  0.33519  1.0000
  C   C138      1.0  0.53859  0.43079  0.33460  1.0000
  C   C139      1.0  0.62413  0.44044  0.33456  1.0000
  C   C140      1.0  0.63630  0.46192  0.33605  1.0000
  C   C141      1.0  0.65770  0.47161  0.33675  1.0000
  C   C142      1.0  0.66749  0.45999  0.33573  1.0000
  C   C143      1.0  0.65558  0.43863  0.33416  1.0000
  C   C144      1.0  0.63430  0.42906  0.33362  1.0000
  C   C145      1.0  0.56086  0.37715  0.33382  1.0000
  C   C146      1.0  0.57225  0.36700  0.33523  1.0000
  C   C147      1.0  0.56269  0.34573  0.33499  1.0000
  C   C148      1.0  0.54133  0.33380  0.33325  1.0000
  C   C149      1.0  0.52971  0.34358  0.33169  1.0000
  C   C150      1.0  0.53938  0.36498  0.33216  1.0000
  H   H76       1.0  0.66606  0.48713  0.33798  1.0000
  H   H77       1.0  0.62970  0.47080  0.33685  1.0000
  H   H78       1.0  0.66229  0.42982  0.33360  1.0000
  H   H79       1.0  0.62638  0.41353  0.33256  1.0000
  H   H80       1.0  0.58778  0.37493  0.33644  1.0000
  H   H81       1.0  0.57151  0.33902  0.33588  1.0000
  H   H82       1.0  0.53050  0.37157  0.33101  1.0000
  H   H83       1.0  0.51418  0.33521  0.33031  1.0000
  H   H84       1.0  0.53033  0.41526  0.33456  1.0000
  H   H85       1.0  0.51231  0.43345  0.33557  1.0000
  H   H86       1.0  0.56782  0.48897  0.33534  1.0000
  H   H87       1.0  0.58601  0.47095  0.33434  1.0000
  C   C151      1.0  0.57094  0.17237  0.33431  1.0000
  N   N26       1.0  0.56103  0.15172  0.33436  1.0000
  C   C152      1.0  0.57099  0.14095  0.33415  1.0000
  N   N27       1.0  0.59171  0.15172  0.33396  1.0000
  C   C153      1.0  0.60246  0.17237  0.33396  1.0000
  N   N28       1.0  0.59152  0.18200  0.33413  1.0000
  C   C154      1.0  0.56013  0.11924  0.33436  1.0000
  C   C155      1.0  0.53858  0.10805  0.33454  1.0000
  C   C156      1.0  0.52786  0.08667  0.33510  1.0000
  C   C157      1.0  0.53841  0.07580  0.33545  1.0000
  C   C158      1.0  0.55983  0.08667  0.33520  1.0000
  C   C159      1.0  0.57049  0.10805  0.33463  1.0000
  C   C160      1.0  0.56085  0.18395  0.33462  1.0000
  C   C161      1.0  0.53937  0.17464  0.33599  1.0000
  C   C162      1.0  0.52969  0.18637  0.33665  1.0000
  C   C163      1.0  0.54131  0.20777  0.33571  1.0000
  C   C164      1.0  0.56268  0.21722  0.33425  1.0000
  C   C165      1.0  0.57224  0.20550  0.33375  1.0000
  C   C166      1.0  0.62413  0.18395  0.33382  1.0000
  C   C167      1.0  0.63430  0.20549  0.33508  1.0000
  C   C168      1.0  0.65557  0.21720  0.33481  1.0000
  C   C169      1.0  0.66749  0.20776  0.33320  1.0000
  C   C170      1.0  0.65770  0.18635  0.33181  1.0000
  C   C171      1.0  0.63629  0.17463  0.33228  1.0000
  H   H88       1.0  0.51417  0.17921  0.33777  1.0000
  H   H89       1.0  0.53049  0.15916  0.33672  1.0000
  H   H90       1.0  0.57149  0.23273  0.33372  1.0000
  H   H91       1.0  0.58777  0.21311  0.33276  1.0000
  H   H92       1.0  0.62637  0.21310  0.33620  1.0000
  H   H93       1.0  0.66228  0.23272  0.33561  1.0000
  H   H94       1.0  0.62970  0.15915  0.33125  1.0000
  H   H95       1.0  0.66606  0.17919  0.33053  1.0000
  H   H96       1.0  0.58601  0.11532  0.33458  1.0000
  H   H97       1.0  0.56782  0.07911  0.33557  1.0000
  H   H98       1.0  0.51231  0.07911  0.33539  1.0000
  H   H99       1.0  0.53033  0.11532  0.33440  1.0000
  C   C172      1.0  0.94695  0.47360  0.33661  1.0000
  C   C173      1.0  0.95775  0.47899  0.41792  1.0000
  C   C174      1.0  0.97913  0.48969  0.41807  1.0000
  C   C175      1.0  0.98995  0.49510  0.33631  1.0000
  C   C176      1.0  0.04336  0.52179  0.41168  1.0000
  H   H100      1.0  0.05044  0.52532  0.47239  1.0000
  H   H101      1.0  0.95013  0.47519  0.47750  1.0000
  H   H102      1.0  0.98656  0.49340  0.47800  1.0000
  C   C177      1.0  0.52768  0.47359  0.33661  1.0000
  C   C178      1.0  0.52228  0.47899  0.41793  1.0000
  C   C179      1.0  0.51159  0.48968  0.41808  1.0000
  C   C180      1.0  0.50618  0.49509  0.33631  1.0000
  C   C181      1.0  0.47949  0.52181  0.41168  1.0000
  N   N29       1.0  0.48979  0.51151  0.40859  1.0000
  H   H103      1.0  0.47596  0.52536  0.47241  1.0000
  H   H104      1.0  0.52609  0.47518  0.47750  1.0000
  H   H105      1.0  0.50787  0.49340  0.47801  1.0000
  C   C182      1.0  0.52768  0.05434  0.33662  1.0000
  C   C183      1.0  0.52228  0.04354  0.41794  1.0000
  C   C184      1.0  0.51159  0.02216  0.41808  1.0000
  C   C185      1.0  0.50618  0.01134  0.33631  1.0000
  C   C186      1.0  0.47946  0.95793  0.41166  1.0000
  N   N30       1.0  0.48976  0.97853  0.40858  1.0000
  H   H106      1.0  0.47590  0.95084  0.47239  1.0000
  H   H107      1.0  0.52609  0.05115  0.47752  1.0000
  H   H108      1.0  0.50787  0.01473  0.47801  1.0000
  N   N31       1.0  0.24531  0.52728  0.40923  1.0000
  C   C187      1.0  0.22919  0.53031  0.41254  1.0000
  C   C188      1.0  0.27242  0.52506  0.33666  1.0000
  C   C189      1.0  0.28225  0.52593  0.41830  1.0000
  C   C190      1.0  0.30237  0.52972  0.41802  1.0000
  C   C191      1.0  0.31269  0.53210  0.33670  1.0000
  H   H109      1.0  0.27554  0.52531  0.47828  1.0000
  H   H110      1.0  0.30981  0.53200  0.47757  1.0000
  H   H111      1.0  0.22473  0.53295  0.47307  1.0000
  N   N32       1.0  0.47401  0.71827  0.40919  1.0000
  C   C192      1.0  0.47104  0.69915  0.41247  1.0000
  C   C193      1.0  0.47618  0.74760  0.33671  1.0000
  C   C194      1.0  0.47536  0.75656  0.41836  1.0000
  C   C195      1.0  0.47158  0.77290  0.41812  1.0000
  C   C196      1.0  0.46917  0.78084  0.33685  1.0000
  H   H112      1.0  0.47608  0.75053  0.47832  1.0000
  H   H113      1.0  0.46939  0.77813  0.47768  1.0000
  H   H114      1.0  0.46836  0.69205  0.47301  1.0000
  N   N33       1.0  0.28298  0.75604  0.40921  1.0000
  C   C197      1.0  0.30211  0.77219  0.41255  1.0000
  C   C198      1.0  0.25367  0.72886  0.33671  1.0000
  C   C199      1.0  0.24470  0.71907  0.41836  1.0000
  C   C200      1.0  0.22837  0.69895  0.41812  1.0000
  C   C201      1.0  0.22044  0.68859  0.33685  1.0000
  H   H115      1.0  0.25078  0.72579  0.47834  1.0000
  H   H116      1.0  0.22320  0.69151  0.47767  1.0000
  H   H117      1.0  0.30920  0.77662  0.47310  1.0000
  N   N34       1.0  0.75626  0.47377  0.40924  1.0000
  C   C202      1.0  0.77239  0.47076  0.41247  1.0000
  C   C203      1.0  0.72912  0.47597  0.33671  1.0000
  C   C204      1.0  0.71929  0.47510  0.41834  1.0000
  C   C205      1.0  0.69918  0.47132  0.41806  1.0000
  C   C206      1.0  0.68885  0.46895  0.33676  1.0000
  H   H118      1.0  0.72599  0.47569  0.47833  1.0000
  H   H119      1.0  0.69172  0.46900  0.47758  1.0000
  H   H120      1.0  0.77686  0.46813  0.47299  1.0000
  N   N35       1.0  0.52759  0.28277  0.40920  1.0000
  C   C207      1.0  0.53062  0.30192  0.41246  1.0000
  C   C208      1.0  0.52532  0.25341  0.33665  1.0000
  C   C209      1.0  0.52624  0.24448  0.41828  1.0000
  C   C210      1.0  0.53003  0.22815  0.41796  1.0000
  C   C211      1.0  0.53236  0.22018  0.33661  1.0000
  H   H121      1.0  0.52566  0.25058  0.47827  1.0000
  H   H122      1.0  0.53234  0.22300  0.47748  1.0000
  H   H123      1.0  0.53329  0.30903  0.47297  1.0000
  N   N36       1.0  0.71851  0.24506  0.40916  1.0000
  C   C212      1.0  0.69938  0.22890  0.41240  1.0000
  C   C213      1.0  0.74786  0.27219  0.33669  1.0000
  C   C214      1.0  0.75680  0.28201  0.41834  1.0000
  C   C215      1.0  0.77313  0.30212  0.41808  1.0000
  C   C216      1.0  0.78107  0.31244  0.33675  1.0000
  H   H124      1.0  0.75075  0.27526  0.47831  1.0000
  H   H125      1.0  0.77835  0.30956  0.47761  1.0000
  H   H126      1.0  0.69227  0.22451  0.47291  1.0000
