data_image0
_chemical_formula_structural       C2HC2HN2C3N2O4CHC3N2O4CHC4H2C4H2N2C3H2CHC3H2CHC2HC2HN2C3N2O4CHC3N2O4CHC4H2C4H2N2C3H2CHC3H2CHC2HC2HN2C3N2O4CHC3N2O4CHC4H2C4H2N2C3H2CHC3H2CHC2HC2HN2C3N2O4CHC3N2O4CHC4H2C4H2N2C3H2CHC3H2CH
_chemical_formula_sum              "C112 H56 N32 O32"
_cell_length_a       31.6226
_cell_length_b       31.6226
_cell_length_c       14.9336
_cell_angle_alpha    90
_cell_angle_beta     90
_cell_angle_gamma    90

_space_group_name_H-M_alt    "P 1"
_space_group_IT_number       1

loop_
  _space_group_symop_operation_xyz
  'x, y, z'

loop_
  _atom_site_type_symbol
  _atom_site_label
  _atom_site_symmetry_multiplicity
  _atom_site_fract_x
  _atom_site_fract_y
  _atom_site_fract_z
  _atom_site_occupancy
  C   C1        1.0  0.00157  0.07013  0.31273  1.0000
  C   C2        1.0  0.03315  0.10180  0.31212  1.0000
  H   H1        1.0  0.47127  0.08071  0.31288  1.0000
  C   C3        1.0  0.45739  0.41699  0.31030  1.0000
  C   C4        1.0  0.48834  0.44927  0.31036  1.0000
  H   H2        1.0  0.01866  0.43909  0.30941  1.0000
  N   N1        1.0  0.46528  0.37483  0.30896  1.0000
  N   N2        1.0  0.02627  0.14399  0.31104  1.0000
  C   C5        1.0  0.00072  0.30649  0.30559  1.0000
  C   C6        1.0  0.03868  0.28247  0.29757  1.0000
  C   C7        1.0  0.03736  0.23716  0.29915  1.0000
  N   N3        1.0  0.07692  0.30553  0.28705  1.0000
  N   N4        1.0  0.07452  0.21248  0.28950  1.0000
  O   O1        1.0  0.09466  0.30072  0.21260  1.0000
  O   O2        1.0  0.10074  0.21611  0.35207  1.0000
  O   O3        1.0  0.10264  0.30160  0.35045  1.0000
  O   O4        1.0  0.09202  0.21521  0.21432  1.0000
  C   C8        1.0  0.00097  0.35135  0.30526  1.0000
  H   H3        1.0  0.02904  0.36711  0.30097  1.0000
  C   C9        1.0  0.19796  0.00371  0.30675  1.0000
  C   C10       1.0  0.22198  0.96575  0.29870  1.0000
  C   C11       1.0  0.26729  0.96708  0.30024  1.0000
  N   N5        1.0  0.19892  0.92753  0.28810  1.0000
  N   N6        1.0  0.29196  0.92992  0.29056  1.0000
  O   O5        1.0  0.20372  0.90982  0.21361  1.0000
  O   O6        1.0  0.28834  0.90370  0.35313  1.0000
  O   O7        1.0  0.20285  0.90177  0.35144  1.0000
  O   O8        1.0  0.28923  0.91242  0.21537  1.0000
  C   C12       1.0  0.15310  0.00348  0.30634  1.0000
  H   H4        1.0  0.13734  0.97541  0.30200  1.0000
  C   C13       1.0  0.01098  0.02585  0.31204  1.0000
  C   C14       1.0  0.07585  0.08980  0.31151  1.0000
  C   C15       1.0  0.08746  0.04707  0.31083  1.0000
  C   C16       1.0  0.05519  0.01611  0.31100  1.0000
  H   H5        1.0  0.06537  0.48579  0.31093  1.0000
  H   H6        1.0  0.09894  0.11260  0.31093  1.0000
  C   C17       1.0  0.47860  0.49348  0.31201  1.0000
  C   C18       1.0  0.43432  0.50287  0.31323  1.0000
  C   C19       1.0  0.40266  0.47129  0.31254  1.0000
  C   C20       1.0  0.41465  0.42860  0.31146  1.0000
  H   H7        1.0  0.42375  0.03317  0.31399  1.0000
  H   H8        1.0  0.39186  0.40551  0.31090  1.0000
  N   N7        1.0  0.36047  0.47817  0.31173  1.0000
  N   N8        1.0  0.12962  0.03918  0.30977  1.0000
  C   C21       1.0  0.99797  0.21543  0.30898  1.0000
  C   C22       1.0  0.96081  0.24003  0.31574  1.0000
  C   C23       1.0  0.96211  0.28433  0.31413  1.0000
  H   H9        1.0  0.93404  0.30021  0.32006  1.0000
  H   H10       1.0  0.93184  0.22589  0.32272  1.0000
  C   C24       1.0  0.99312  0.17079  0.31216  1.0000
  H   H11       1.0  0.96354  0.15784  0.31702  1.0000
  C   C25       1.0  0.28902  0.00646  0.31011  1.0000
  C   C26       1.0  0.26442  0.04362  0.31697  1.0000
  C   C27       1.0  0.22012  0.04233  0.31535  1.0000
  H   H12       1.0  0.20424  0.07039  0.32132  1.0000
  H   H13       1.0  0.27857  0.07259  0.32398  1.0000
  C   C28       1.0  0.33366  0.01132  0.31320  1.0000
  H   H14       1.0  0.34661  0.04090  0.31810  1.0000
  C   C29       1.0  0.00157  0.57013  0.31273  1.0000
  C   C30       1.0  0.03315  0.60179  0.31212  1.0000
  H   H15       1.0  0.47127  0.58071  0.31288  1.0000
  C   C31       1.0  0.45739  0.91699  0.31030  1.0000
  C   C32       1.0  0.48834  0.94927  0.31036  1.0000
  H   H16       1.0  0.01866  0.93909  0.30941  1.0000
  N   N9        1.0  0.46528  0.87483  0.30896  1.0000
  N   N10       1.0  0.02627  0.64399  0.31104  1.0000
  C   C33       1.0  0.00072  0.80649  0.30559  1.0000
  C   C34       1.0  0.03868  0.78247  0.29757  1.0000
  C   C35       1.0  0.03736  0.73716  0.29915  1.0000
  N   N11       1.0  0.07692  0.80553  0.28705  1.0000
  N   N12       1.0  0.07452  0.71248  0.28950  1.0000
  O   O9        1.0  0.09466  0.80072  0.21260  1.0000
  O   O10       1.0  0.10074  0.71611  0.35207  1.0000
  O   O11       1.0  0.10264  0.80160  0.35045  1.0000
  O   O12       1.0  0.09202  0.71521  0.21432  1.0000
  C   C36       1.0  0.00097  0.85135  0.30526  1.0000
  H   H17       1.0  0.02904  0.86711  0.30097  1.0000
  C   C37       1.0  0.19796  0.50371  0.30675  1.0000
  C   C38       1.0  0.22198  0.46576  0.29870  1.0000
  C   C39       1.0  0.26729  0.46708  0.30024  1.0000
  N   N13       1.0  0.19892  0.42753  0.28810  1.0000
  N   N14       1.0  0.29196  0.42992  0.29056  1.0000
  O   O13       1.0  0.20372  0.40982  0.21361  1.0000
  O   O14       1.0  0.28834  0.40370  0.35313  1.0000
  O   O15       1.0  0.20285  0.40178  0.35144  1.0000
  O   O16       1.0  0.28923  0.41242  0.21537  1.0000
  C   C40       1.0  0.15310  0.50348  0.30634  1.0000
  H   H18       1.0  0.13734  0.47541  0.30200  1.0000
  C   C41       1.0  0.01098  0.52585  0.31204  1.0000
  C   C42       1.0  0.07585  0.58980  0.31151  1.0000
  C   C43       1.0  0.08746  0.54707  0.31083  1.0000
  C   C44       1.0  0.05519  0.51611  0.31100  1.0000
  H   H19       1.0  0.06537  0.98579  0.31093  1.0000
  H   H20       1.0  0.09894  0.61260  0.31093  1.0000
  C   C45       1.0  0.47860  0.99348  0.31201  1.0000
  C   C46       1.0  0.43432  0.00288  0.31323  1.0000
  C   C47       1.0  0.40266  0.97129  0.31254  1.0000
  C   C48       1.0  0.41465  0.92860  0.31146  1.0000
  H   H21       1.0  0.42375  0.53317  0.31399  1.0000
  H   H22       1.0  0.39186  0.90551  0.31090  1.0000
  N   N15       1.0  0.36047  0.97817  0.31173  1.0000
  N   N16       1.0  0.12962  0.53918  0.30977  1.0000
  C   C49       1.0  0.99797  0.71543  0.30898  1.0000
  C   C50       1.0  0.96081  0.74003  0.31574  1.0000
  C   C51       1.0  0.96211  0.78433  0.31413  1.0000
  H   H23       1.0  0.93404  0.80021  0.32006  1.0000
  H   H24       1.0  0.93184  0.72588  0.32272  1.0000
  C   C52       1.0  0.99312  0.67079  0.31216  1.0000
  H   H25       1.0  0.96354  0.65784  0.31702  1.0000
  C   C53       1.0  0.28902  0.50646  0.31011  1.0000
  C   C54       1.0  0.26442  0.54362  0.31697  1.0000
  C   C55       1.0  0.22012  0.54233  0.31535  1.0000
  H   H26       1.0  0.20424  0.57039  0.32132  1.0000
  H   H27       1.0  0.27857  0.57259  0.32398  1.0000
  C   C56       1.0  0.33366  0.51132  0.31320  1.0000
  H   H28       1.0  0.34661  0.54090  0.31810  1.0000
  C   C57       1.0  0.50157  0.07013  0.31273  1.0000
  C   C58       1.0  0.53315  0.10180  0.31212  1.0000
  H   H29       1.0  0.97127  0.08071  0.31288  1.0000
  C   C59       1.0  0.95739  0.41699  0.31030  1.0000
  C   C60       1.0  0.98834  0.44927  0.31036  1.0000
  H   H30       1.0  0.51866  0.43909  0.30941  1.0000
  N   N17       1.0  0.96528  0.37483  0.30896  1.0000
  N   N18       1.0  0.52627  0.14399  0.31104  1.0000
  C   C61       1.0  0.50073  0.30649  0.30559  1.0000
  C   C62       1.0  0.53868  0.28247  0.29757  1.0000
  C   C63       1.0  0.53736  0.23716  0.29915  1.0000
  N   N19       1.0  0.57692  0.30553  0.28705  1.0000
  N   N20       1.0  0.57452  0.21248  0.28950  1.0000
  O   O17       1.0  0.59466  0.30072  0.21260  1.0000
  O   O18       1.0  0.60074  0.21611  0.35207  1.0000
  O   O19       1.0  0.60264  0.30160  0.35045  1.0000
  O   O20       1.0  0.59202  0.21521  0.21432  1.0000
  C   C64       1.0  0.50097  0.35135  0.30526  1.0000
  H   H31       1.0  0.52904  0.36711  0.30097  1.0000
  C   C65       1.0  0.69796  0.00371  0.30675  1.0000
  C   C66       1.0  0.72198  0.96575  0.29870  1.0000
  C   C67       1.0  0.76729  0.96708  0.30024  1.0000
  N   N21       1.0  0.69892  0.92753  0.28810  1.0000
  N   N22       1.0  0.79196  0.92992  0.29056  1.0000
  O   O21       1.0  0.70372  0.90982  0.21361  1.0000
  O   O22       1.0  0.78834  0.90370  0.35313  1.0000
  O   O23       1.0  0.70285  0.90177  0.35144  1.0000
  O   O24       1.0  0.78923  0.91242  0.21537  1.0000
  C   C68       1.0  0.65310  0.00348  0.30634  1.0000
  H   H32       1.0  0.63734  0.97541  0.30200  1.0000
  C   C69       1.0  0.51097  0.02585  0.31204  1.0000
  C   C70       1.0  0.57585  0.08980  0.31151  1.0000
  C   C71       1.0  0.58746  0.04707  0.31083  1.0000
  C   C72       1.0  0.55519  0.01611  0.31100  1.0000
  H   H33       1.0  0.56537  0.48579  0.31093  1.0000
  H   H34       1.0  0.59894  0.11260  0.31093  1.0000
  C   C73       1.0  0.97860  0.49348  0.31201  1.0000
  C   C74       1.0  0.93432  0.50287  0.31323  1.0000
  C   C75       1.0  0.90266  0.47129  0.31254  1.0000
  C   C76       1.0  0.91465  0.42860  0.31146  1.0000
  H   H35       1.0  0.92374  0.03317  0.31399  1.0000
  H   H36       1.0  0.89185  0.40551  0.31090  1.0000
  N   N23       1.0  0.86047  0.47817  0.31173  1.0000
  N   N24       1.0  0.62962  0.03918  0.30977  1.0000
  C   C77       1.0  0.49797  0.21543  0.30898  1.0000
  C   C78       1.0  0.46081  0.24003  0.31574  1.0000
  C   C79       1.0  0.46211  0.28433  0.31413  1.0000
  H   H37       1.0  0.43405  0.30021  0.32006  1.0000
  H   H38       1.0  0.43184  0.22589  0.32272  1.0000
  C   C80       1.0  0.49312  0.17079  0.31216  1.0000
  H   H39       1.0  0.46354  0.15784  0.31702  1.0000
  C   C81       1.0  0.78902  0.00646  0.31011  1.0000
  C   C82       1.0  0.76442  0.04362  0.31697  1.0000
  C   C83       1.0  0.72012  0.04233  0.31535  1.0000
  H   H40       1.0  0.70424  0.07039  0.32132  1.0000
  H   H41       1.0  0.77857  0.07259  0.32398  1.0000
  C   C84       1.0  0.83366  0.01132  0.31320  1.0000
  H   H42       1.0  0.84661  0.04090  0.31810  1.0000
  C   C85       1.0  0.50157  0.57013  0.31273  1.0000
  C   C86       1.0  0.53315  0.60179  0.31212  1.0000
  H   H43       1.0  0.97127  0.58071  0.31288  1.0000
  C   C87       1.0  0.95739  0.91699  0.31030  1.0000
  C   C88       1.0  0.98834  0.94927  0.31036  1.0000
  H   H44       1.0  0.51866  0.93909  0.30941  1.0000
  N   N25       1.0  0.96528  0.87483  0.30896  1.0000
  N   N26       1.0  0.52627  0.64399  0.31104  1.0000
  C   C89       1.0  0.50073  0.80649  0.30559  1.0000
  C   C90       1.0  0.53868  0.78247  0.29757  1.0000
  C   C91       1.0  0.53736  0.73716  0.29915  1.0000
  N   N27       1.0  0.57692  0.80553  0.28705  1.0000
  N   N28       1.0  0.57452  0.71248  0.28950  1.0000
  O   O25       1.0  0.59466  0.80072  0.21260  1.0000
  O   O26       1.0  0.60074  0.71611  0.35207  1.0000
  O   O27       1.0  0.60264  0.80160  0.35045  1.0000
  O   O28       1.0  0.59202  0.71521  0.21432  1.0000
  C   C92       1.0  0.50097  0.85135  0.30526  1.0000
  H   H45       1.0  0.52904  0.86711  0.30097  1.0000
  C   C93       1.0  0.69796  0.50371  0.30675  1.0000
  C   C94       1.0  0.72198  0.46576  0.29870  1.0000
  C   C95       1.0  0.76729  0.46708  0.30024  1.0000
  N   N29       1.0  0.69892  0.42753  0.28810  1.0000
  N   N30       1.0  0.79196  0.42992  0.29056  1.0000
  O   O29       1.0  0.70372  0.40982  0.21361  1.0000
  O   O30       1.0  0.78834  0.40370  0.35313  1.0000
  O   O31       1.0  0.70285  0.40178  0.35144  1.0000
  O   O32       1.0  0.78923  0.41242  0.21537  1.0000
  C   C96       1.0  0.65310  0.50348  0.30634  1.0000
  H   H46       1.0  0.63734  0.47541  0.30200  1.0000
  C   C97       1.0  0.51097  0.52585  0.31204  1.0000
  C   C98       1.0  0.57585  0.58980  0.31151  1.0000
  C   C99       1.0  0.58746  0.54707  0.31083  1.0000
  C   C100      1.0  0.55519  0.51611  0.31100  1.0000
  H   H47       1.0  0.56537  0.98579  0.31093  1.0000
  H   H48       1.0  0.59894  0.61260  0.31093  1.0000
  C   C101      1.0  0.97860  0.99348  0.31201  1.0000
  C   C102      1.0  0.93432  0.00288  0.31323  1.0000
  C   C103      1.0  0.90266  0.97129  0.31254  1.0000
  C   C104      1.0  0.91465  0.92860  0.31146  1.0000
  H   H49       1.0  0.92374  0.53317  0.31399  1.0000
  H   H50       1.0  0.89185  0.90551  0.31090  1.0000
  N   N31       1.0  0.86047  0.97817  0.31173  1.0000
  N   N32       1.0  0.62962  0.53918  0.30977  1.0000
  C   C105      1.0  0.49797  0.71543  0.30898  1.0000
  C   C106      1.0  0.46081  0.74003  0.31574  1.0000
  C   C107      1.0  0.46211  0.78433  0.31413  1.0000
  H   H51       1.0  0.43405  0.80021  0.32006  1.0000
  H   H52       1.0  0.43184  0.72588  0.32272  1.0000
  C   C108      1.0  0.49312  0.67079  0.31216  1.0000
  H   H53       1.0  0.46354  0.65784  0.31702  1.0000
  C   C109      1.0  0.78902  0.50646  0.31011  1.0000
  C   C110      1.0  0.76442  0.54362  0.31697  1.0000
  C   C111      1.0  0.72012  0.54233  0.31535  1.0000
  H   H54       1.0  0.70424  0.57039  0.32132  1.0000
  H   H55       1.0  0.77857  0.57259  0.32398  1.0000
  C   C112      1.0  0.83366  0.51132  0.31320  1.0000
  H   H56       1.0  0.84661  0.54090  0.31810  1.0000
