data_image0
_chemical_formula_structural       C2H2C4H2C2H2C4H2C3H2C3H3C2H2C2HC4H3C4H4C2H2CHC6H3C4HC4H2NO2C4HC4HNO2C4HNO2C4H3C4H4C2H2CHC6H3C4HC4H2NO2C4HC4HNO2C4HNO2C4H4C4H4C4H4C6H3C6H3C4HC4H2NO2C4HC4H2NO2C4HC4H2NO2C4H4C4H4C4H4C6H3C6H3C4HC4H2NO2C4HC4H2NO2C4HC4H2NO2
_chemical_formula_sum              "C192 H108 N12 O24"
_cell_length_a       44.5421
_cell_length_b       44.5422
_cell_length_c       14.8731
_cell_angle_alpha    90
_cell_angle_beta     90
_cell_angle_gamma    120

_space_group_name_H-M_alt    "P 1"
_space_group_IT_number       1

loop_
  _space_group_symop_operation_xyz
  'x, y, z'

loop_
  _atom_site_type_symbol
  _atom_site_label
  _atom_site_symmetry_multiplicity
  _atom_site_fract_x
  _atom_site_fract_y
  _atom_site_fract_z
  _atom_site_occupancy
  C   C1        1.0  0.04302  0.29090  0.28895  1.0000
  C   C2        1.0  0.07954  0.30930  0.28841  1.0000
  H   H1        1.0  0.03008  0.29848  0.24602  1.0000
  H   H2        1.0  0.09199  0.32927  0.24370  1.0000
  C   C3        1.0  0.02441  0.26289  0.34871  1.0000
  C   C4        1.0  0.09881  0.30013  0.34675  1.0000
  C   C5        1.0  0.08002  0.27178  0.40572  1.0000
  C   C6        1.0  0.04351  0.25355  0.40684  1.0000
  H   H3        1.0  0.09282  0.26447  0.44987  1.0000
  H   H4        1.0  0.03094  0.23315  0.45032  1.0000
  C   C7        1.0  0.04302  0.79090  0.28895  1.0000
  C   C8        1.0  0.07954  0.80930  0.28841  1.0000
  H   H5        1.0  0.03008  0.79848  0.24602  1.0000
  H   H6        1.0  0.09199  0.82927  0.24370  1.0000
  C   C9        1.0  0.02441  0.76289  0.34871  1.0000
  C   C10       1.0  0.09881  0.80013  0.34675  1.0000
  C   C11       1.0  0.08002  0.77178  0.40572  1.0000
  C   C12       1.0  0.04351  0.75355  0.40684  1.0000
  H   H7        1.0  0.09282  0.76447  0.44987  1.0000
  H   H8        1.0  0.03094  0.73315  0.45032  1.0000
  C   C13       1.0  0.13597  0.31887  0.34628  1.0000
  C   C14       1.0  0.15473  0.35558  0.34628  1.0000
  C   C15       1.0  0.15508  0.30128  0.34627  1.0000
  H   H9        1.0  0.14194  0.27473  0.34641  1.0000
  H   H10       1.0  0.14133  0.36873  0.34642  1.0000
  C   C16       1.0  0.13597  0.81887  0.34628  1.0000
  C   C17       1.0  0.15473  0.85559  0.34628  1.0000
  C   C18       1.0  0.15508  0.80128  0.34627  1.0000
  H   H11       1.0  0.14194  0.77473  0.34641  1.0000
  H   H12       1.0  0.14133  0.86873  0.34642  1.0000
  H   H13       1.0  0.18140  0.26486  0.24367  1.0000
  C   C19       1.0  0.19143  0.37469  0.34628  1.0000
  C   C20       1.0  0.19179  0.31924  0.34628  1.0000
  H   H14       1.0  0.18019  0.41785  0.44990  1.0000
  H   H15       1.0  0.18140  0.76486  0.24367  1.0000
  C   C21       1.0  0.19143  0.87469  0.34628  1.0000
  C   C22       1.0  0.19179  0.81924  0.34628  1.0000
  H   H16       1.0  0.18020  0.91785  0.44990  1.0000
  C   C23       1.0  0.30107  0.22495  0.26950  1.0000
  C   C24       1.0  0.28252  0.24288  0.27080  1.0000
  C   C25       1.0  0.21978  0.25426  0.28890  1.0000
  C   C26       1.0  0.20137  0.27238  0.28840  1.0000
  H   H17       1.0  0.21219  0.23374  0.24599  1.0000
  H   H18       1.0  0.31278  0.22411  0.21105  1.0000
  H   H19       1.0  0.28161  0.25499  0.21318  1.0000
  C   C27       1.0  0.28573  0.07825  0.26950  1.0000
  C   C28       1.0  0.26780  0.04178  0.27080  1.0000
  C   C29       1.0  0.25642  0.46765  0.28894  1.0000
  C   C30       1.0  0.23828  0.43112  0.28839  1.0000
  H   H20       1.0  0.27693  0.48059  0.24601  1.0000
  H   H21       1.0  0.24581  0.41868  0.24370  1.0000
  H   H22       1.0  0.28657  0.09080  0.21105  1.0000
  H   H23       1.0  0.25569  0.02875  0.21318  1.0000
  C   C31       1.0  0.43242  0.20962  0.26949  1.0000
  C   C32       1.0  0.46889  0.22816  0.27080  1.0000
  H   H24       1.0  0.41987  0.19792  0.21103  1.0000
  H   H25       1.0  0.48192  0.22909  0.21317  1.0000
  C   C33       1.0  0.20939  0.35594  0.34627  1.0000
  H   H26       1.0  0.23594  0.36934  0.34641  1.0000
  C   C34       1.0  0.37655  0.18928  0.34594  1.0000
  C   C35       1.0  0.35791  0.15263  0.34604  1.0000
  C   C36       1.0  0.32126  0.13412  0.34595  1.0000
  C   C37       1.0  0.30325  0.15275  0.34603  1.0000
  C   C38       1.0  0.32139  0.18940  0.34594  1.0000
  C   C39       1.0  0.35803  0.20741  0.34602  1.0000
  H   H27       1.0  0.27668  0.13951  0.34650  1.0000
  H   H28       1.0  0.37137  0.23399  0.34649  1.0000
  H   H29       1.0  0.37116  0.13930  0.34650  1.0000
  C   C40       1.0  0.30306  0.20786  0.34718  1.0000
  C   C41       1.0  0.26607  0.24492  0.35015  1.0000
  C   C42       1.0  0.26820  0.22801  0.42902  1.0000
  C   C43       1.0  0.28640  0.20945  0.42628  1.0000
  H   H30       1.0  0.28769  0.19720  0.48323  1.0000
  C   C44       1.0  0.24778  0.26365  0.34869  1.0000
  C   C45       1.0  0.21054  0.30082  0.34674  1.0000
  C   C46       1.0  0.23889  0.31038  0.40569  1.0000
  C   C47       1.0  0.25712  0.29210  0.40684  1.0000
  H   H31       1.0  0.24619  0.33047  0.44989  1.0000
  H   H32       1.0  0.27750  0.29990  0.45034  1.0000
  N   N1        1.0  0.25138  0.22911  0.50873  1.0000
  O   O1        1.0  0.27260  0.24309  0.57207  1.0000
  O   O2        1.0  0.22847  0.19930  0.53296  1.0000
  C   C48       1.0  0.30280  0.09733  0.34719  1.0000
  C   C49       1.0  0.26575  0.02329  0.35016  1.0000
  C   C50       1.0  0.28265  0.04233  0.42904  1.0000
  C   C51       1.0  0.30120  0.07909  0.42631  1.0000
  H   H33       1.0  0.31345  0.09262  0.48326  1.0000
  C   C52       1.0  0.24702  0.48626  0.34870  1.0000
  C   C53       1.0  0.20985  0.41185  0.34674  1.0000
  C   C54       1.0  0.20028  0.43064  0.40569  1.0000
  C   C55       1.0  0.21857  0.46716  0.40684  1.0000
  H   H34       1.0  0.21076  0.47973  0.45034  1.0000
  N   N2        1.0  0.28155  0.02441  0.50876  1.0000
  O   O3        1.0  0.26756  0.03165  0.57207  1.0000
  O   O4        1.0  0.31135  0.53131  0.53302  1.0000
  C   C56       1.0  0.41334  0.20761  0.34718  1.0000
  C   C57       1.0  0.48738  0.24460  0.35017  1.0000
  C   C58       1.0  0.46834  0.24245  0.42904  1.0000
  C   C59       1.0  0.43158  0.22425  0.42631  1.0000
  H   H35       1.0  0.41804  0.22295  0.48326  1.0000
  N   N3        1.0  0.48626  0.25926  0.50877  1.0000
  O   O5        1.0  0.47901  0.23802  0.57207  1.0000
  O   O6        1.0  0.97936  0.28216  0.53305  1.0000
  C   C60       1.0  0.30107  0.72495  0.26950  1.0000
  C   C61       1.0  0.28252  0.74288  0.27080  1.0000
  C   C62       1.0  0.21978  0.75427  0.28890  1.0000
  C   C63       1.0  0.20137  0.77238  0.28840  1.0000
  H   H36       1.0  0.21219  0.73374  0.24599  1.0000
  H   H37       1.0  0.31278  0.72411  0.21105  1.0000
  H   H38       1.0  0.28161  0.75499  0.21318  1.0000
  C   C64       1.0  0.28573  0.57825  0.26950  1.0000
  C   C65       1.0  0.26780  0.54178  0.27080  1.0000
  C   C66       1.0  0.25642  0.96765  0.28894  1.0000
  C   C67       1.0  0.23828  0.93112  0.28839  1.0000
  H   H39       1.0  0.27693  0.98059  0.24601  1.0000
  H   H40       1.0  0.24581  0.91868  0.24370  1.0000
  H   H41       1.0  0.28657  0.59080  0.21105  1.0000
  H   H42       1.0  0.25569  0.52875  0.21318  1.0000
  C   C68       1.0  0.43242  0.70962  0.26949  1.0000
  C   C69       1.0  0.46889  0.72816  0.27080  1.0000
  H   H43       1.0  0.41987  0.69792  0.21103  1.0000
  H   H44       1.0  0.48192  0.72908  0.21317  1.0000
  C   C70       1.0  0.20939  0.85594  0.34627  1.0000
  H   H45       1.0  0.23594  0.86934  0.34641  1.0000
  C   C71       1.0  0.37655  0.68928  0.34594  1.0000
  C   C72       1.0  0.35791  0.65263  0.34604  1.0000
  C   C73       1.0  0.32126  0.63411  0.34595  1.0000
  C   C74       1.0  0.30326  0.65275  0.34603  1.0000
  C   C75       1.0  0.32139  0.68941  0.34594  1.0000
  C   C76       1.0  0.35803  0.70741  0.34602  1.0000
  H   H46       1.0  0.27668  0.63951  0.34650  1.0000
  H   H47       1.0  0.37137  0.73399  0.34649  1.0000
  H   H48       1.0  0.37116  0.63930  0.34650  1.0000
  C   C77       1.0  0.30306  0.70786  0.34718  1.0000
  C   C78       1.0  0.26607  0.74492  0.35015  1.0000
  C   C79       1.0  0.26820  0.72801  0.42902  1.0000
  C   C80       1.0  0.28640  0.70945  0.42628  1.0000
  H   H49       1.0  0.28769  0.69720  0.48323  1.0000
  C   C81       1.0  0.24778  0.76365  0.34869  1.0000
  C   C82       1.0  0.21054  0.80082  0.34674  1.0000
  C   C83       1.0  0.23889  0.81038  0.40569  1.0000
  C   C84       1.0  0.25712  0.79210  0.40684  1.0000
  H   H50       1.0  0.24619  0.83047  0.44989  1.0000
  H   H51       1.0  0.27750  0.79990  0.45034  1.0000
  N   N4        1.0  0.25138  0.72911  0.50873  1.0000
  O   O7        1.0  0.27261  0.74309  0.57207  1.0000
  O   O8        1.0  0.22847  0.69930  0.53296  1.0000
  C   C85       1.0  0.30280  0.59733  0.34719  1.0000
  C   C86       1.0  0.26575  0.52329  0.35016  1.0000
  C   C87       1.0  0.28265  0.54233  0.42904  1.0000
  C   C88       1.0  0.30120  0.57908  0.42631  1.0000
  H   H52       1.0  0.31345  0.59262  0.48326  1.0000
  C   C89       1.0  0.24702  0.98626  0.34870  1.0000
  C   C90       1.0  0.20985  0.91186  0.34674  1.0000
  C   C91       1.0  0.20028  0.93064  0.40569  1.0000
  C   C92       1.0  0.21857  0.96716  0.40684  1.0000
  H   H53       1.0  0.21076  0.97973  0.45034  1.0000
  N   N5        1.0  0.28155  0.52441  0.50876  1.0000
  O   O9        1.0  0.26756  0.53165  0.57207  1.0000
  O   O10       1.0  0.31135  0.03131  0.53302  1.0000
  C   C93       1.0  0.41334  0.70761  0.34718  1.0000
  C   C94       1.0  0.48738  0.74460  0.35017  1.0000
  C   C95       1.0  0.46834  0.74245  0.42904  1.0000
  C   C96       1.0  0.43158  0.72425  0.42631  1.0000
  H   H54       1.0  0.41804  0.72295  0.48326  1.0000
  N   N6        1.0  0.48626  0.75926  0.50877  1.0000
  O   O11       1.0  0.47902  0.73802  0.57207  1.0000
  O   O12       1.0  0.97936  0.78216  0.53305  1.0000
  C   C97       1.0  0.80107  0.22495  0.26950  1.0000
  C   C98       1.0  0.78252  0.24288  0.27080  1.0000
  C   C99       1.0  0.71978  0.25426  0.28890  1.0000
  C   C100      1.0  0.70137  0.27238  0.28840  1.0000
  H   H55       1.0  0.71219  0.23374  0.24599  1.0000
  H   H56       1.0  0.68140  0.26486  0.24367  1.0000
  H   H57       1.0  0.81278  0.22411  0.21105  1.0000
  H   H58       1.0  0.78161  0.25499  0.21318  1.0000
  C   C101      1.0  0.78573  0.07825  0.26950  1.0000
  C   C102      1.0  0.76780  0.04178  0.27080  1.0000
  C   C103      1.0  0.75641  0.46765  0.28894  1.0000
  C   C104      1.0  0.73828  0.43112  0.28839  1.0000
  H   H59       1.0  0.77693  0.48059  0.24601  1.0000
  H   H60       1.0  0.74582  0.41868  0.24370  1.0000
  H   H61       1.0  0.78657  0.09080  0.21105  1.0000
  H   H62       1.0  0.75569  0.02875  0.21318  1.0000
  C   C105      1.0  0.93242  0.20962  0.26949  1.0000
  C   C106      1.0  0.96889  0.22816  0.27080  1.0000
  C   C107      1.0  0.54302  0.29090  0.28895  1.0000
  C   C108      1.0  0.57954  0.30930  0.28841  1.0000
  H   H63       1.0  0.53007  0.29848  0.24602  1.0000
  H   H64       1.0  0.59199  0.32927  0.24370  1.0000
  H   H65       1.0  0.91987  0.19792  0.21103  1.0000
  H   H66       1.0  0.98192  0.22909  0.21317  1.0000
  C   C109      1.0  0.63597  0.31887  0.34628  1.0000
  C   C110      1.0  0.65473  0.35558  0.34628  1.0000
  C   C111      1.0  0.69143  0.37469  0.34628  1.0000
  C   C112      1.0  0.70939  0.35594  0.34627  1.0000
  C   C113      1.0  0.69180  0.31924  0.34628  1.0000
  C   C114      1.0  0.65508  0.30128  0.34627  1.0000
  H   H67       1.0  0.73594  0.36934  0.34641  1.0000
  H   H68       1.0  0.64194  0.27473  0.34641  1.0000
  H   H69       1.0  0.64133  0.36873  0.34642  1.0000
  C   C115      1.0  0.87655  0.18928  0.34594  1.0000
  C   C116      1.0  0.85791  0.15263  0.34604  1.0000
  C   C117      1.0  0.82126  0.13412  0.34595  1.0000
  C   C118      1.0  0.80326  0.15275  0.34603  1.0000
  C   C119      1.0  0.82139  0.18940  0.34594  1.0000
  C   C120      1.0  0.85803  0.20741  0.34602  1.0000
  H   H70       1.0  0.77668  0.13951  0.34650  1.0000
  H   H71       1.0  0.87137  0.23399  0.34649  1.0000
  H   H72       1.0  0.87116  0.13930  0.34650  1.0000
  C   C121      1.0  0.80306  0.20786  0.34718  1.0000
  C   C122      1.0  0.76607  0.24492  0.35015  1.0000
  C   C123      1.0  0.76820  0.22801  0.42902  1.0000
  C   C124      1.0  0.78640  0.20945  0.42628  1.0000
  H   H73       1.0  0.78769  0.19720  0.48323  1.0000
  C   C125      1.0  0.74778  0.26365  0.34869  1.0000
  C   C126      1.0  0.71054  0.30082  0.34674  1.0000
  C   C127      1.0  0.73889  0.31038  0.40569  1.0000
  C   C128      1.0  0.75712  0.29210  0.40684  1.0000
  H   H74       1.0  0.74619  0.33047  0.44989  1.0000
  H   H75       1.0  0.77751  0.29990  0.45034  1.0000
  N   N7        1.0  0.75138  0.22911  0.50873  1.0000
  O   O13       1.0  0.77261  0.24309  0.57207  1.0000
  O   O14       1.0  0.72847  0.19930  0.53296  1.0000
  C   C129      1.0  0.80280  0.09733  0.34719  1.0000
  C   C130      1.0  0.76575  0.02329  0.35016  1.0000
  C   C131      1.0  0.78266  0.04233  0.42904  1.0000
  C   C132      1.0  0.80120  0.07909  0.42631  1.0000
  H   H76       1.0  0.81345  0.09262  0.48326  1.0000
  C   C133      1.0  0.74702  0.48626  0.34870  1.0000
  C   C134      1.0  0.70985  0.41185  0.34674  1.0000
  C   C135      1.0  0.70028  0.43064  0.40569  1.0000
  C   C136      1.0  0.71857  0.46716  0.40684  1.0000
  H   H77       1.0  0.68020  0.41785  0.44990  1.0000
  H   H78       1.0  0.71076  0.47973  0.45034  1.0000
  N   N8        1.0  0.78155  0.02441  0.50876  1.0000
  O   O15       1.0  0.76755  0.03165  0.57207  1.0000
  O   O16       1.0  0.81135  0.53131  0.53302  1.0000
  C   C137      1.0  0.91334  0.20761  0.34718  1.0000
  C   C138      1.0  0.98738  0.24460  0.35017  1.0000
  C   C139      1.0  0.96834  0.24245  0.42904  1.0000
  C   C140      1.0  0.93158  0.22425  0.42631  1.0000
  H   H79       1.0  0.91804  0.22295  0.48326  1.0000
  C   C141      1.0  0.52440  0.26289  0.34871  1.0000
  C   C142      1.0  0.59881  0.30013  0.34675  1.0000
  C   C143      1.0  0.58002  0.27178  0.40572  1.0000
  C   C144      1.0  0.54351  0.25355  0.40684  1.0000
  H   H80       1.0  0.59282  0.26447  0.44987  1.0000
  H   H81       1.0  0.53094  0.23315  0.45032  1.0000
  N   N9        1.0  0.98626  0.25926  0.50877  1.0000
  O   O17       1.0  0.97901  0.23802  0.57207  1.0000
  O   O18       1.0  0.47936  0.28216  0.53305  1.0000
  C   C145      1.0  0.80107  0.72495  0.26950  1.0000
  C   C146      1.0  0.78252  0.74288  0.27080  1.0000
  C   C147      1.0  0.71978  0.75427  0.28890  1.0000
  C   C148      1.0  0.70137  0.77238  0.28840  1.0000
  H   H82       1.0  0.71219  0.73374  0.24599  1.0000
  H   H83       1.0  0.68140  0.76486  0.24367  1.0000
  H   H84       1.0  0.81278  0.72411  0.21105  1.0000
  H   H85       1.0  0.78161  0.75499  0.21318  1.0000
  C   C149      1.0  0.78573  0.57825  0.26950  1.0000
  C   C150      1.0  0.76780  0.54178  0.27080  1.0000
  C   C151      1.0  0.75642  0.96765  0.28894  1.0000
  C   C152      1.0  0.73828  0.93112  0.28839  1.0000
  H   H86       1.0  0.77694  0.98059  0.24601  1.0000
  H   H87       1.0  0.74581  0.91868  0.24370  1.0000
  H   H88       1.0  0.78657  0.59080  0.21105  1.0000
  H   H89       1.0  0.75569  0.52875  0.21318  1.0000
  C   C153      1.0  0.93242  0.70962  0.26949  1.0000
  C   C154      1.0  0.96889  0.72816  0.27080  1.0000
  C   C155      1.0  0.54302  0.79090  0.28895  1.0000
  C   C156      1.0  0.57954  0.80930  0.28841  1.0000
  H   H90       1.0  0.53007  0.79848  0.24602  1.0000
  H   H91       1.0  0.59199  0.82927  0.24370  1.0000
  H   H92       1.0  0.91987  0.69792  0.21103  1.0000
  H   H93       1.0  0.98192  0.72908  0.21317  1.0000
  C   C157      1.0  0.63598  0.81887  0.34628  1.0000
  C   C158      1.0  0.65473  0.85559  0.34628  1.0000
  C   C159      1.0  0.69143  0.87469  0.34628  1.0000
  C   C160      1.0  0.70939  0.85594  0.34627  1.0000
  C   C161      1.0  0.69179  0.81924  0.34628  1.0000
  C   C162      1.0  0.65509  0.80128  0.34627  1.0000
  H   H94       1.0  0.73594  0.86934  0.34641  1.0000
  H   H95       1.0  0.64194  0.77473  0.34641  1.0000
  H   H96       1.0  0.64133  0.86873  0.34642  1.0000
  C   C163      1.0  0.87655  0.68928  0.34594  1.0000
  C   C164      1.0  0.85791  0.65263  0.34604  1.0000
  C   C165      1.0  0.82126  0.63411  0.34595  1.0000
  C   C166      1.0  0.80325  0.65275  0.34603  1.0000
  C   C167      1.0  0.82139  0.68941  0.34594  1.0000
  C   C168      1.0  0.85803  0.70741  0.34602  1.0000
  H   H97       1.0  0.77668  0.63951  0.34650  1.0000
  H   H98       1.0  0.87137  0.73399  0.34649  1.0000
  H   H99       1.0  0.87116  0.63930  0.34650  1.0000
  C   C169      1.0  0.80306  0.70786  0.34718  1.0000
  C   C170      1.0  0.76607  0.74492  0.35015  1.0000
  C   C171      1.0  0.76820  0.72801  0.42902  1.0000
  C   C172      1.0  0.78640  0.70945  0.42628  1.0000
  H   H100      1.0  0.78769  0.69720  0.48323  1.0000
  C   C173      1.0  0.74778  0.76365  0.34869  1.0000
  C   C174      1.0  0.71054  0.80082  0.34674  1.0000
  C   C175      1.0  0.73889  0.81038  0.40569  1.0000
  C   C176      1.0  0.75712  0.79210  0.40684  1.0000
  H   H101      1.0  0.74619  0.83047  0.44989  1.0000
  H   H102      1.0  0.77750  0.79990  0.45034  1.0000
  N   N10       1.0  0.75138  0.72911  0.50873  1.0000
  O   O19       1.0  0.77260  0.74309  0.57207  1.0000
  O   O20       1.0  0.72847  0.69930  0.53296  1.0000
  C   C177      1.0  0.80280  0.59733  0.34719  1.0000
  C   C178      1.0  0.76575  0.52329  0.35016  1.0000
  C   C179      1.0  0.78265  0.54233  0.42904  1.0000
  C   C180      1.0  0.80120  0.57908  0.42631  1.0000
  H   H103      1.0  0.81345  0.59262  0.48326  1.0000
  C   C181      1.0  0.74702  0.98626  0.34870  1.0000
  C   C182      1.0  0.70985  0.91186  0.34674  1.0000
  C   C183      1.0  0.70028  0.93064  0.40569  1.0000
  C   C184      1.0  0.71857  0.96716  0.40684  1.0000
  H   H104      1.0  0.68020  0.91785  0.44990  1.0000
  H   H105      1.0  0.71076  0.97973  0.45034  1.0000
  N   N11       1.0  0.78155  0.52441  0.50876  1.0000
  O   O21       1.0  0.76756  0.53165  0.57207  1.0000
  O   O22       1.0  0.81135  0.03131  0.53302  1.0000
  C   C185      1.0  0.91334  0.70761  0.34718  1.0000
  C   C186      1.0  0.98738  0.74460  0.35017  1.0000
  C   C187      1.0  0.96834  0.74245  0.42904  1.0000
  C   C188      1.0  0.93158  0.72425  0.42631  1.0000
  H   H106      1.0  0.91804  0.72295  0.48326  1.0000
  C   C189      1.0  0.52441  0.76289  0.34871  1.0000
  C   C190      1.0  0.59881  0.80013  0.34675  1.0000
  C   C191      1.0  0.58003  0.77178  0.40572  1.0000
  C   C192      1.0  0.54351  0.75355  0.40684  1.0000
  H   H107      1.0  0.59282  0.76447  0.44987  1.0000
  H   H108      1.0  0.53093  0.73315  0.45032  1.0000
  N   N12       1.0  0.98626  0.75926  0.50877  1.0000
  O   O23       1.0  0.97902  0.73802  0.57207  1.0000
  O   O24       1.0  0.47936  0.78216  0.53305  1.0000
