data_image0
_chemical_formula_structural       C3H2CH2CH2C2H2C3H3C5H3CH3C5H3CH3C2H2C2H2C2H2C2H2C2H2C2H2C3HC6H3C6H3C6H3C6H3C6H3CHC2H2C2H2C5H2CH3C5H3CH3C5H3CH2C5H3CH3C5H3CH3C5H3CH3
_chemical_formula_sum              "C108 H90"
_cell_length_a       30.7617
_cell_length_b       30.7616
_cell_length_c       14.827
_cell_angle_alpha    90
_cell_angle_beta     90
_cell_angle_gamma    120

_space_group_name_H-M_alt    "P 1"
_space_group_IT_number       1

loop_
  _space_group_symop_operation_xyz
  'x, y, z'

loop_
  _atom_site_type_symbol
  _atom_site_label
  _atom_site_symmetry_multiplicity
  _atom_site_fract_x
  _atom_site_fract_y
  _atom_site_fract_z
  _atom_site_occupancy
  C   C1        1.0  0.06292  0.53247  0.34018  1.0000
  C   C2        1.0  0.03576  0.50726  0.26043  1.0000
  C   C3        1.0  0.06354  0.51005  0.17547  1.0000
  H   H1        1.0  0.05274  0.52707  0.12192  1.0000
  H   H2        1.0  0.05444  0.47233  0.15528  1.0000
  C   C4        1.0  0.03514  0.53089  0.41727  1.0000
  H   H3        1.0  0.05336  0.54861  0.47544  1.0000
  H   H4        1.0  0.10419  0.53243  0.18089  1.0000
  C   C5        1.0  0.11692  0.55956  0.34687  1.0000
  H   H5        1.0  0.12509  0.63240  0.34530  1.0000
  H   H6        1.0  0.12543  0.49509  0.34586  1.0000
  C   C6        1.0  0.14410  0.61298  0.34758  1.0000
  C   C7        1.0  0.14432  0.53353  0.34772  1.0000
  H   H7        1.0  0.18177  0.51685  0.50554  1.0000
  H   H8        1.0  0.18125  0.66716  0.50535  1.0000
  C   C8        1.0  0.95446  0.47826  0.34021  1.0000
  C   C9        1.0  0.98160  0.48019  0.26044  1.0000
  C   C10       1.0  0.95380  0.45523  0.17548  1.0000
  H   H9        1.0  0.91316  0.43701  0.18091  1.0000
  H   H10       1.0  0.96286  0.42657  0.15531  1.0000
  H   H11       1.0  0.96463  0.48305  0.12193  1.0000
  C   C11       1.0  0.53634  0.47918  0.34023  1.0000
  C   C12       1.0  0.48214  0.53345  0.34024  1.0000
  C   C13       1.0  0.50735  0.53149  0.26047  1.0000
  C   C14       1.0  0.53440  0.50439  0.26046  1.0000
  C   C15       1.0  0.50453  0.55646  0.17550  1.0000
  H   H12       1.0  0.48216  0.57474  0.18093  1.0000
  H   H13       1.0  0.48751  0.52864  0.12197  1.0000
  H   H14       1.0  0.54226  0.58508  0.15530  1.0000
  C   C16       1.0  0.55936  0.50155  0.17550  1.0000
  H   H15       1.0  0.57758  0.47913  0.18091  1.0000
  H   H16       1.0  0.58801  0.53926  0.15531  1.0000
  H   H17       1.0  0.53153  0.48456  0.12195  1.0000
  C   C17       1.0  0.53546  0.06008  0.34021  1.0000
  C   C18       1.0  0.48116  0.95162  0.34023  1.0000
  C   C19       1.0  0.48311  0.97877  0.26047  1.0000
  C   C20       1.0  0.51023  0.03293  0.26045  1.0000
  C   C21       1.0  0.45812  0.95099  0.17551  1.0000
  H   H18       1.0  0.43983  0.91034  0.18095  1.0000
  H   H19       1.0  0.48594  0.96177  0.12197  1.0000
  H   H20       1.0  0.42951  0.96011  0.15532  1.0000
  C   C22       1.0  0.51307  0.06073  0.17549  1.0000
  H   H21       1.0  0.53551  0.10137  0.18089  1.0000
  H   H22       1.0  0.47536  0.05169  0.15532  1.0000
  H   H23       1.0  0.53004  0.04988  0.12193  1.0000
  C   C23       1.0  0.30112  0.54462  0.26578  1.0000
  C   C24       1.0  0.25555  0.54460  0.26595  1.0000
  H   H24       1.0  0.24571  0.55590  0.20814  1.0000
  H   H25       1.0  0.32227  0.55608  0.20802  1.0000
  C   C25       1.0  0.47012  0.75954  0.26566  1.0000
  C   C26       1.0  0.47008  0.71396  0.26572  1.0000
  H   H26       1.0  0.45877  0.69283  0.20792  1.0000
  H   H27       1.0  0.45871  0.76931  0.20791  1.0000
  C   C27       1.0  0.25511  0.71344  0.26568  1.0000
  C   C28       1.0  0.30068  0.75898  0.26576  1.0000
  H   H28       1.0  0.32184  0.76881  0.20797  1.0000
  H   H29       1.0  0.24536  0.69227  0.20792  1.0000
  C   C29       1.0  0.71678  0.46709  0.26585  1.0000
  C   C30       1.0  0.76229  0.46700  0.26589  1.0000
  H   H30       1.0  0.77209  0.45562  0.20812  1.0000
  H   H31       1.0  0.69559  0.45570  0.20811  1.0000
  C   C31       1.0  0.54753  0.25268  0.26597  1.0000
  C   C32       1.0  0.54757  0.29827  0.26593  1.0000
  H   H32       1.0  0.55894  0.31942  0.20815  1.0000
  H   H33       1.0  0.55893  0.24291  0.20821  1.0000
  C   C33       1.0  0.76195  0.29779  0.26582  1.0000
  C   C34       1.0  0.71636  0.25225  0.26585  1.0000
  H   H34       1.0  0.69520  0.24246  0.20808  1.0000
  H   H35       1.0  0.77174  0.31898  0.20809  1.0000
  C   C35       1.0  0.19757  0.55985  0.34807  1.0000
  C   C36       1.0  0.22317  0.61287  0.34840  1.0000
  C   C37       1.0  0.19737  0.64010  0.34818  1.0000
  H   H36       1.0  0.26175  0.63222  0.34938  1.0000
  C   C38       1.0  0.45471  0.64068  0.34817  1.0000
  C   C39       1.0  0.40170  0.61324  0.34835  1.0000
  C   C40       1.0  0.37449  0.56021  0.34818  1.0000
  C   C41       1.0  0.40162  0.53408  0.34773  1.0000
  C   C42       1.0  0.45504  0.56033  0.34693  1.0000
  C   C43       1.0  0.48105  0.61377  0.34774  1.0000
  H   H37       1.0  0.38222  0.49565  0.34540  1.0000
  H   H38       1.0  0.51949  0.63334  0.34579  1.0000
  H   H39       1.0  0.38233  0.63246  0.34925  1.0000
  C   C44       1.0  0.37394  0.81693  0.34826  1.0000
  C   C45       1.0  0.40140  0.79137  0.34840  1.0000
  C   C46       1.0  0.45443  0.81721  0.34820  1.0000
  C   C47       1.0  0.48055  0.87048  0.34772  1.0000
  C   C48       1.0  0.45427  0.89762  0.34692  1.0000
  C   C49       1.0  0.40084  0.87018  0.34776  1.0000
  H   H40       1.0  0.51897  0.88951  0.34535  1.0000
  H   H41       1.0  0.38126  0.88904  0.34583  1.0000
  H   H42       1.0  0.38220  0.75279  0.34932  1.0000
  C   C50       1.0  0.82003  0.45147  0.34838  1.0000
  C   C51       1.0  0.79422  0.39844  0.34857  1.0000
  C   C52       1.0  0.81980  0.37101  0.34827  1.0000
  C   C53       1.0  0.87306  0.39794  0.34773  1.0000
  C   C54       1.0  0.90047  0.45138  0.34693  1.0000
  C   C55       1.0  0.87330  0.47761  0.34776  1.0000
  H   H43       1.0  0.89193  0.37838  0.34579  1.0000
  H   H44       1.0  0.89231  0.51604  0.34546  1.0000
  H   H45       1.0  0.75563  0.37922  0.34957  1.0000
  C   C56       1.0  0.56310  0.37152  0.34840  1.0000
  C   C57       1.0  0.61613  0.39873  0.34861  1.0000
  C   C58       1.0  0.64357  0.45175  0.34830  1.0000
  C   C59       1.0  0.61665  0.47808  0.34774  1.0000
  C   C60       1.0  0.56322  0.45207  0.34693  1.0000
  C   C61       1.0  0.53697  0.39866  0.34778  1.0000
  H   H46       1.0  0.63622  0.51652  0.34581  1.0000
  H   H47       1.0  0.49854  0.37925  0.34546  1.0000
  H   H48       1.0  0.63534  0.37936  0.34962  1.0000
  C   C62       1.0  0.64311  0.19451  0.34834  1.0000
  C   C63       1.0  0.61589  0.22032  0.34857  1.0000
  C   C64       1.0  0.56288  0.19474  0.34831  1.0000
  C   C65       1.0  0.53655  0.14148  0.34774  1.0000
  C   C66       1.0  0.56257  0.11407  0.34691  1.0000
  C   C67       1.0  0.61598  0.14124  0.34774  1.0000
  H   H49       1.0  0.49811  0.12261  0.34586  1.0000
  H   H50       1.0  0.63539  0.12222  0.34542  1.0000
  H   H51       1.0  0.63526  0.25890  0.34957  1.0000
  C   C68       1.0  0.98226  0.50446  0.41728  1.0000
  H   H52       1.0  0.96405  0.50397  0.47547  1.0000
  C   C69       1.0  0.51015  0.48079  0.41731  1.0000
  C   C70       1.0  0.48373  0.50725  0.41732  1.0000
  H   H53       1.0  0.46602  0.50775  0.47550  1.0000
  H   H54       1.0  0.51065  0.46307  0.47550  1.0000
  C   C71       1.0  0.53385  0.03228  0.41729  1.0000
  C   C72       1.0  0.50737  0.97940  0.41731  1.0000
  H   H55       1.0  0.50687  0.96118  0.47548  1.0000
  H   H56       1.0  0.55157  0.05049  0.47547  1.0000
  C   C73       1.0  0.32129  0.53672  0.34569  1.0000
  C   C74       1.0  0.22738  0.53646  0.34588  1.0000
  C   C75       1.0  0.24565  0.52587  0.42686  1.0000
  C   C76       1.0  0.29251  0.52596  0.42683  1.0000
  C   C77       1.0  0.21734  0.51763  0.51333  1.0000
  H   H57       1.0  0.24010  0.54753  0.56094  1.0000
  H   H58       1.0  0.20845  0.48150  0.54216  1.0000
  C   C78       1.0  0.31265  0.51772  0.51324  1.0000
  H   H59       1.0  0.34746  0.51701  0.50538  1.0000
  H   H60       1.0  0.28545  0.48156  0.54202  1.0000
  H   H61       1.0  0.31974  0.54758  0.56091  1.0000
  C   C79       1.0  0.47795  0.78753  0.34567  1.0000
  C   C80       1.0  0.47802  0.69387  0.34568  1.0000
  C   C81       1.0  0.48870  0.72266  0.42680  1.0000
  C   C82       1.0  0.48865  0.76945  0.42680  1.0000
  C   C83       1.0  0.49695  0.70257  0.51326  1.0000
  H   H62       1.0  0.49773  0.66779  0.50546  1.0000
  H   H63       1.0  0.46707  0.69544  0.56088  1.0000
  H   H64       1.0  0.53309  0.72981  0.54207  1.0000
  C   C84       1.0  0.49688  0.79779  0.51324  1.0000
  H   H65       1.0  0.49762  0.83334  0.50539  1.0000
  H   H66       1.0  0.53302  0.80673  0.54205  1.0000
  H   H67       1.0  0.46700  0.77503  0.56086  1.0000
  C   C85       1.0  0.22709  0.69329  0.34565  1.0000
  C   C86       1.0  0.32076  0.78703  0.34572  1.0000
  C   C87       1.0  0.29195  0.76892  0.42682  1.0000
  C   C88       1.0  0.24515  0.72208  0.42679  1.0000
  C   C89       1.0  0.31200  0.79727  0.51327  1.0000
  H   H68       1.0  0.34678  0.83283  0.50548  1.0000
  H   H69       1.0  0.31912  0.77452  0.56093  1.0000
  H   H70       1.0  0.28475  0.80616  0.54203  1.0000
  C   C90       1.0  0.21678  0.70196  0.51321  1.0000
  H   H71       1.0  0.20783  0.72917  0.54198  1.0000
  H   H72       1.0  0.23954  0.69486  0.56088  1.0000
  C   C91       1.0  0.69677  0.47509  0.34588  1.0000
  C   C92       1.0  0.79034  0.47500  0.34588  1.0000
  C   C93       1.0  0.77230  0.48571  0.42703  1.0000
  C   C94       1.0  0.72550  0.48574  0.42704  1.0000
  C   C95       1.0  0.80066  0.49395  0.51345  1.0000
  H   H73       1.0  0.83620  0.49470  0.50558  1.0000
  H   H74       1.0  0.77790  0.46409  0.56110  1.0000
  H   H75       1.0  0.80959  0.53011  0.54224  1.0000
  C   C96       1.0  0.70540  0.49401  0.51346  1.0000
  H   H76       1.0  0.67062  0.49478  0.50560  1.0000
  H   H77       1.0  0.73264  0.53016  0.54224  1.0000
  H   H78       1.0  0.69827  0.46414  0.56111  1.0000
  C   C97       1.0  0.53955  0.22458  0.34592  1.0000
  C   C98       1.0  0.53956  0.31830  0.34590  1.0000
  C   C99       1.0  0.52886  0.28955  0.42702  1.0000
  C   C100      1.0  0.52885  0.24273  0.42698  1.0000
  C   C101      1.0  0.52059  0.30965  0.51344  1.0000
  H   H79       1.0  0.51983  0.34444  0.50558  1.0000
  H   H80       1.0  0.55046  0.31677  0.56110  1.0000
  H   H81       1.0  0.48445  0.28242  0.54223  1.0000
  C   C102      1.0  0.52058  0.21437  0.51341  1.0000
  H   H82       1.0  0.51983  0.17882  0.50559  1.0000
  H   H83       1.0  0.48441  0.20544  0.54217  1.0000
  H   H84       1.0  0.55043  0.23712  0.56108  1.0000
  C   C103      1.0  0.78996  0.31781  0.34585  1.0000
  C   C104      1.0  0.69633  0.22420  0.34584  1.0000
  C   C105      1.0  0.72507  0.24227  0.42700  1.0000
  C   C106      1.0  0.77189  0.28908  0.42701  1.0000
  C   C107      1.0  0.70497  0.21390  0.51342  1.0000
  H   H85       1.0  0.67018  0.17835  0.50554  1.0000
  H   H86       1.0  0.69784  0.23665  0.56106  1.0000
  H   H87       1.0  0.73219  0.20499  0.54222  1.0000
  C   C108      1.0  0.80025  0.30918  0.51343  1.0000
  H   H88       1.0  0.83580  0.34398  0.50558  1.0000
  H   H89       1.0  0.80918  0.28196  0.54221  1.0000
  H   H90       1.0  0.77750  0.31629  0.56108  1.0000
