data_image0
_chemical_formula_structural       C11H6C6H3C6N2C2HCHC2HCHC2HCHC7H6NCHCH2CHCHCHC2OHCHC2OHN2HCHC11H5C6H3C7HC7H5NC2OHCH
_chemical_formula_sum              "C84 H48 N6 O3"
_cell_length_a       45.3353
_cell_length_b       45.3463
_cell_length_c       14.6453
_cell_angle_alpha    90
_cell_angle_beta     90
_cell_angle_gamma    119.983

_space_group_name_H-M_alt    "P 1"
_space_group_IT_number       1

loop_
  _space_group_symop_operation_xyz
  'x, y, z'

loop_
  _atom_site_type_symbol
  _atom_site_label
  _atom_site_symmetry_multiplicity
  _atom_site_fract_x
  _atom_site_fract_y
  _atom_site_fract_z
  _atom_site_occupancy
  C   C1        1.0  0.21853  0.61301  0.35695  1.0000
  C   C2        1.0  0.41861  0.61304  0.35794  1.0000
  C   C3        1.0  0.41745  0.81201  0.35805  1.0000
  C   C4        1.0  0.45498  0.57694  0.36083  1.0000
  C   C5        1.0  0.43099  0.57097  0.29110  1.0000
  C   C6        1.0  0.41303  0.58887  0.28947  1.0000
  C   C7        1.0  0.16475  0.61055  0.39421  1.0000
  C   C8        1.0  0.20061  0.62840  0.39315  1.0000
  C   C9        1.0  0.45345  0.88441  0.36093  1.0000
  C   C10       1.0  0.45990  0.86643  0.29212  1.0000
  C   C11       1.0  0.44204  0.83059  0.29046  1.0000
  H   H1        1.0  0.42599  0.55319  0.24160  1.0000
  H   H2        1.0  0.39576  0.58385  0.23821  1.0000
  H   H3        1.0  0.21337  0.65260  0.41926  1.0000
  H   H4        1.0  0.15232  0.62220  0.42100  1.0000
  H   H5        1.0  0.47799  0.87922  0.24331  1.0000
  H   H6        1.0  0.44739  0.81835  0.23987  1.0000
  C   C12       1.0  0.36950  0.71509  0.35523  1.0000
  C   C13       1.0  0.33352  0.69694  0.35513  1.0000
  C   C14       1.0  0.31550  0.66097  0.35504  1.0000
  C   C15       1.0  0.33366  0.64314  0.35506  1.0000
  C   C16       1.0  0.36966  0.66109  0.35518  1.0000
  C   C17       1.0  0.38747  0.69706  0.35524  1.0000
  H   H7        1.0  0.32062  0.61697  0.35523  1.0000
  H   H8        1.0  0.32039  0.70999  0.35534  1.0000
  H   H9        1.0  0.41364  0.71020  0.35556  1.0000
  C   C18       1.0  0.40104  0.77878  0.35691  1.0000
  C   C19       1.0  0.38602  0.74834  0.35594  1.0000
  C   C20       1.0  0.40181  0.62950  0.35681  1.0000
  C   C21       1.0  0.38640  0.64455  0.35586  1.0000
  C   C22       1.0  0.28223  0.64438  0.35553  1.0000
  C   C23       1.0  0.25178  0.62939  0.35620  1.0000
  N   N1        1.0  0.47209  0.56022  0.36802  1.0000
  N   N2        1.0  0.47013  0.91821  0.36817  1.0000
  C   C24       1.0  0.49811  0.52781  0.33282  1.0000
  C   C25       1.0  0.51044  0.51506  0.26342  1.0000
  H   H10       1.0  0.50684  0.51837  0.19600  1.0000
  C   C26       1.0  0.48019  0.54432  0.30936  1.0000
  H   H11       1.0  0.47353  0.54393  0.24446  1.0000
  C   C27       1.0  0.50263  0.97657  0.33292  1.0000
  C   C28       1.0  0.51529  0.00162  0.26346  1.0000
  H   H12       1.0  0.51192  0.99469  0.19606  1.0000
  C   C29       1.0  0.48617  0.94216  0.30951  1.0000
  H   H13       1.0  0.48671  0.93587  0.24471  1.0000
  C   C30       1.0  0.05371  0.52394  0.34169  1.0000
  C   C31       1.0  0.02863  0.49995  0.28208  1.0000
  H   H14       1.0  0.03549  0.49091  0.22676  1.0000
  C   C32       1.0  0.08800  0.53494  0.32602  1.0000
  H   H15       1.0  0.09392  0.52178  0.28286  1.0000
  C   C33       1.0  0.44229  0.61891  0.42813  1.0000
  C   C34       1.0  0.46011  0.60085  0.42961  1.0000
  C   C35       1.0  0.20006  0.57957  0.32207  1.0000
  C   C36       1.0  0.16421  0.56186  0.32314  1.0000
  C   C37       1.0  0.14605  0.57720  0.35874  1.0000
  C   C38       1.0  0.41112  0.82977  0.42739  1.0000
  C   C39       1.0  0.42914  0.86562  0.42890  1.0000
  H   H16       1.0  0.47701  0.60540  0.48144  1.0000
  H   H17       1.0  0.21240  0.56770  0.29594  1.0000
  H   H18       1.0  0.15158  0.53755  0.29846  1.0000
  H   H19       1.0  0.39358  0.81693  0.47764  1.0000
  H   H20       1.0  0.42428  0.87797  0.48011  1.0000
  H   H21       1.0  0.44671  0.63616  0.47901  1.0000
  N   N3        1.0  0.11220  0.56191  0.36336  1.0000
  C   C40       1.0  0.50365  0.52203  0.42465  1.0000
  H   H22       1.0  0.49487  0.53052  0.47703  1.0000
  C   C41       1.0  0.50847  0.98789  0.42474  1.0000
  H   H23       1.0  0.50007  0.97064  0.47713  1.0000
  H   H24       1.0  0.51377  0.03661  0.55460  1.0000
  C   C42       1.0  0.04255  0.53553  0.41670  1.0000
  H   H25       1.0  0.05985  0.55268  0.46191  1.0000
  C   C43       1.0  0.52720  0.49688  0.28480  1.0000
  H   H26       1.0  0.53487  0.48746  0.23209  1.0000
  C   C44       1.0  0.53345  0.03654  0.28480  1.0000
  H   H27       1.0  0.54282  0.05362  0.23207  1.0000
  C   C45       1.0  0.53241  0.49077  0.37661  1.0000
  C   C46       1.0  0.52068  0.50408  0.44662  1.0000
  O   O1        1.0  0.52413  0.49898  0.53677  1.0000
  H   H28       1.0  0.54716  0.51685  0.55438  1.0000
  C   C47       1.0  0.54713  0.47104  0.39824  1.0000
  H   H29       1.0  0.54228  0.45984  0.45902  1.0000
  C   C48       1.0  0.53963  0.04786  0.37661  1.0000
  C   C49       1.0  0.52641  0.02286  0.44667  1.0000
  O   O2        1.0  0.53161  0.03142  0.53680  1.0000
  H   H30       1.0  0.55301  0.14613  0.24215  1.0000
  N   N4        1.0  0.56694  0.46697  0.34311  1.0000
  N   N5        1.0  0.56328  0.10613  0.34314  1.0000
  H   H31       1.0  0.55446  0.41503  0.45597  1.0000
  C   C50       1.0  0.55939  0.08230  0.39816  1.0000
  H   H32       1.0  0.57073  0.08866  0.45876  1.0000
  C   C51       1.0  0.81774  0.41055  0.35298  1.0000
  C   C52       1.0  0.61924  0.41291  0.35106  1.0000
  C   C53       1.0  0.61724  0.21242  0.35112  1.0000
  C   C54       1.0  0.58314  0.44931  0.34929  1.0000
  C   C55       1.0  0.60999  0.45749  0.28725  1.0000
  C   C56       1.0  0.62801  0.43965  0.28818  1.0000
  C   C57       1.0  0.87170  0.41361  0.31442  1.0000
  C   C58       1.0  0.83582  0.39579  0.31408  1.0000
  C   C59       1.0  0.58093  0.13997  0.34928  1.0000
  C   C60       1.0  0.57243  0.15860  0.28799  1.0000
  C   C61       1.0  0.59024  0.19446  0.28895  1.0000
  H   H33       1.0  0.61675  0.47672  0.24086  1.0000
  H   H34       1.0  0.64744  0.44635  0.24238  1.0000
  H   H35       1.0  0.82320  0.37203  0.28523  1.0000
  H   H36       1.0  0.88423  0.40237  0.28582  1.0000
  H   H37       1.0  0.58332  0.20717  0.24371  1.0000
  C   C62       1.0  0.66634  0.30934  0.35366  1.0000
  C   C63       1.0  0.70232  0.32705  0.35385  1.0000
  C   C64       1.0  0.72078  0.36302  0.35390  1.0000
  C   C65       1.0  0.70305  0.38128  0.35381  1.0000
  C   C66       1.0  0.66707  0.36377  0.35362  1.0000
  C   C67       1.0  0.64882  0.32779  0.35358  1.0000
  H   H38       1.0  0.71641  0.40745  0.35363  1.0000
  H   H39       1.0  0.71514  0.31369  0.35369  1.0000
  H   H40       1.0  0.62264  0.31498  0.35321  1.0000
  C   C68       1.0  0.63395  0.24565  0.35198  1.0000
  C   C69       1.0  0.64939  0.27609  0.35291  1.0000
  C   C70       1.0  0.63576  0.39618  0.35192  1.0000
  C   C71       1.0  0.65076  0.38074  0.35285  1.0000
  C   C72       1.0  0.75405  0.37927  0.35349  1.0000
  C   C73       1.0  0.78449  0.39415  0.35306  1.0000
  C   C74       1.0  0.99381  0.48834  0.29610  1.0000
  H   H41       1.0  0.97672  0.47148  0.25005  1.0000
  C   C75       1.0  0.59215  0.40426  0.41262  1.0000
  C   C76       1.0  0.57427  0.42223  0.41151  1.0000
  C   C77       1.0  0.83604  0.44335  0.39190  1.0000
  C   C78       1.0  0.87189  0.46105  0.39209  1.0000
  C   C79       1.0  0.89025  0.44637  0.35360  1.0000
  C   C80       1.0  0.62620  0.19402  0.41193  1.0000
  C   C81       1.0  0.60826  0.15818  0.41079  1.0000
  H   H42       1.0  0.82358  0.45473  0.42041  1.0000
  H   H43       1.0  0.88433  0.48478  0.42047  1.0000
  H   H44       1.0  0.64588  0.20639  0.45721  1.0000
  H   H45       1.0  0.61568  0.14558  0.45465  1.0000
  H   H46       1.0  0.58504  0.38478  0.45848  1.0000
  N   N6        1.0  0.92414  0.46147  0.35082  1.0000
  C   C82       1.0  0.98263  0.50004  0.37085  1.0000
  C   C83       1.0  0.00767  0.52373  0.43174  1.0000
  O   O3        1.0  0.99922  0.53653  0.50502  1.0000
  H   H47       1.0  0.99352  0.51993  0.55469  1.0000
  C   C84       1.0  0.94829  0.48960  0.38331  1.0000
  H   H48       1.0  0.94234  0.50445  0.41932  1.0000
