data_image0
_chemical_formula_structural       C2HC6H3C2HC6H3C2HC6H3C2NCNC2H3CH3C2NCNC2H3CH3C2NCNC2H3CH3CNCNCNC18H12CNCNCNC18H12CNCNCNC18H12CNCNCNC18H12C2NCNC2H3CH3C2NCNC2H3CH3C2NCNC2H3CH3C2HC6H3C2HC6H3C2HC6H3
_chemical_formula_sum              "C168 H108 N24"
_cell_length_a       56.3103
_cell_length_b       56.3104
_cell_length_c       14.9951
_cell_angle_alpha    90
_cell_angle_beta     90
_cell_angle_gamma    120

_space_group_name_H-M_alt    "P 1"
_space_group_IT_number       1

loop_
  _space_group_symop_operation_xyz
  'x, y, z'

loop_
  _atom_site_type_symbol
  _atom_site_label
  _atom_site_symmetry_multiplicity
  _atom_site_fract_x
  _atom_site_fract_y
  _atom_site_fract_z
  _atom_site_occupancy
  C   C1        1.0  0.24020  0.12015  0.25059  1.0000
  C   C2        1.0  0.26912  0.13461  0.25373  1.0000
  H   H1        1.0  0.28005  0.14008  0.19532  1.0000
  C   C3        1.0  0.19657  0.09833  0.33195  1.0000
  C   C4        1.0  0.13896  0.06952  0.33439  1.0000
  C   C5        1.0  0.15315  0.07661  0.25222  1.0000
  C   C6        1.0  0.18207  0.09108  0.24987  1.0000
  C   C7        1.0  0.19681  0.09845  0.16882  1.0000
  C   C8        1.0  0.22565  0.11288  0.16919  1.0000
  H   H2        1.0  0.18669  0.09339  0.10903  1.0000
  H   H3        1.0  0.23592  0.11801  0.10964  1.0000
  H   H4        1.0  0.14233  0.07120  0.19360  1.0000
  C   C9        1.0  0.87064  0.12013  0.25059  1.0000
  C   C10       1.0  0.85618  0.13458  0.25372  1.0000
  H   H5        1.0  0.85071  0.14004  0.19532  1.0000
  C   C11       1.0  0.89247  0.09832  0.33194  1.0000
  C   C12       1.0  0.92128  0.06953  0.33439  1.0000
  C   C13       1.0  0.91419  0.07662  0.25222  1.0000
  C   C14       1.0  0.89972  0.09108  0.24986  1.0000
  C   C15       1.0  0.89235  0.09844  0.16882  1.0000
  C   C16       1.0  0.87792  0.11286  0.16918  1.0000
  H   H6        1.0  0.89741  0.09338  0.10902  1.0000
  H   H7        1.0  0.87279  0.11798  0.10963  1.0000
  H   H8        1.0  0.91960  0.07121  0.19360  1.0000
  C   C17       1.0  0.87067  0.75060  0.25059  1.0000
  C   C18       1.0  0.85621  0.72168  0.25372  1.0000
  H   H9        1.0  0.85075  0.71075  0.19532  1.0000
  C   C19       1.0  0.89247  0.79423  0.33194  1.0000
  C   C20       1.0  0.92128  0.85184  0.33439  1.0000
  C   C21       1.0  0.91419  0.83766  0.25222  1.0000
  C   C22       1.0  0.89972  0.80873  0.24987  1.0000
  C   C23       1.0  0.89236  0.79399  0.16882  1.0000
  C   C24       1.0  0.87794  0.76515  0.16918  1.0000
  H   H10       1.0  0.89742  0.80411  0.10902  1.0000
  H   H11       1.0  0.87281  0.75489  0.10963  1.0000
  H   H12       1.0  0.91960  0.84848  0.19360  1.0000
  C   C25       1.0  0.63161  0.14831  0.33112  1.0000
  C   C26       1.0  0.61674  0.14556  0.25152  1.0000
  N   N1        1.0  0.59122  0.14231  0.25804  1.0000
  C   C27       1.0  0.57849  0.14116  0.33614  1.0000
  N   N2        1.0  0.54158  0.14227  0.25904  1.0000
  C   C28       1.0  0.51937  0.14568  0.25369  1.0000
  C   C29       1.0  0.62748  0.14778  0.15992  1.0000
  H   H13       1.0  0.64774  0.14972  0.15858  1.0000
  H   H14       1.0  0.62879  0.16567  0.12694  1.0000
  H   H15       1.0  0.61355  0.12946  0.12207  1.0000
  C   C30       1.0  0.50973  0.14782  0.16380  1.0000
  H   H16       1.0  0.52134  0.14460  0.11153  1.0000
  H   H17       1.0  0.51209  0.16811  0.15444  1.0000
  H   H18       1.0  0.48814  0.13234  0.15624  1.0000
  C   C31       1.0  0.84251  0.48341  0.33112  1.0000
  C   C32       1.0  0.84528  0.47129  0.25157  1.0000
  N   N3        1.0  0.84852  0.44901  0.25806  1.0000
  C   C33       1.0  0.84968  0.43743  0.33614  1.0000
  N   N4        1.0  0.84856  0.39940  0.25905  1.0000
  C   C34       1.0  0.84513  0.37378  0.25373  1.0000
  C   C35       1.0  0.84302  0.47978  0.15994  1.0000
  H   H19       1.0  0.84108  0.49809  0.15858  1.0000
  H   H20       1.0  0.82512  0.46318  0.12705  1.0000
  H   H21       1.0  0.86133  0.48416  0.12205  1.0000
  C   C36       1.0  0.84298  0.36200  0.16382  1.0000
  H   H22       1.0  0.84621  0.37684  0.11156  1.0000
  H   H23       1.0  0.82269  0.34409  0.15446  1.0000
  H   H24       1.0  0.85845  0.35588  0.15624  1.0000
  C   C37       1.0  0.50743  0.35917  0.33125  1.0000
  C   C38       1.0  0.51951  0.37405  0.25164  1.0000
  N   N5        1.0  0.54178  0.39958  0.25812  1.0000
  C   C39       1.0  0.55336  0.41233  0.33621  1.0000
  N   N6        1.0  0.59139  0.44922  0.25908  1.0000
  C   C40       1.0  0.61701  0.47142  0.25372  1.0000
  C   C41       1.0  0.51103  0.36331  0.16001  1.0000
  H   H25       1.0  0.49273  0.34304  0.15864  1.0000
  H   H26       1.0  0.52764  0.36202  0.12713  1.0000
  H   H27       1.0  0.50664  0.37722  0.12211  1.0000
  C   C42       1.0  0.62878  0.48104  0.16380  1.0000
  H   H28       1.0  0.61394  0.46943  0.11156  1.0000
  H   H29       1.0  0.64670  0.47866  0.15444  1.0000
  H   H30       1.0  0.63490  0.50263  0.15620  1.0000
  C   C43       1.0  0.97969  0.96866  0.33327  1.0000
  N   N7        1.0  0.00756  0.98324  0.33327  1.0000
  C   C44       1.0  0.02215  0.01111  0.33327  1.0000
  N   N8        1.0  0.00756  0.02441  0.33327  1.0000
  C   C45       1.0  0.97969  0.01112  0.33327  1.0000
  N   N9        1.0  0.96640  0.98324  0.33327  1.0000
  C   C46       1.0  0.05140  0.02574  0.33337  1.0000
  C   C47       1.0  0.06648  0.01173  0.33344  1.0000
  C   C48       1.0  0.09532  0.02611  0.33367  1.0000
  C   C49       1.0  0.10996  0.05502  0.33397  1.0000
  C   C50       1.0  0.09532  0.06929  0.33367  1.0000
  C   C51       1.0  0.06648  0.05482  0.33344  1.0000
  C   C52       1.0  0.96506  0.93940  0.33337  1.0000
  C   C53       1.0  0.97907  0.92432  0.33344  1.0000
  C   C54       1.0  0.96469  0.89548  0.33366  1.0000
  C   C55       1.0  0.93578  0.88084  0.33397  1.0000
  C   C56       1.0  0.92151  0.89548  0.33367  1.0000
  C   C57       1.0  0.93597  0.92433  0.33344  1.0000
  C   C58       1.0  0.96506  0.02575  0.33337  1.0000
  C   C59       1.0  0.93598  0.01174  0.33344  1.0000
  C   C60       1.0  0.92151  0.02612  0.33366  1.0000
  C   C61       1.0  0.93578  0.05503  0.33397  1.0000
  C   C62       1.0  0.96469  0.06930  0.33366  1.0000
  C   C63       1.0  0.97907  0.05483  0.33344  1.0000
  H   H31       1.0  0.97546  0.88526  0.33382  1.0000
  H   H32       1.0  0.00003  0.93415  0.33337  1.0000
  H   H33       1.0  0.90051  0.88526  0.33382  1.0000
  H   H34       1.0  0.92484  0.93416  0.33337  1.0000
  H   H35       1.0  0.92485  0.99077  0.33337  1.0000
  H   H36       1.0  0.90052  0.01534  0.33382  1.0000
  H   H37       1.0  0.00004  0.06596  0.33337  1.0000
  H   H38       1.0  0.97547  0.09029  0.33382  1.0000
  H   H39       1.0  0.05665  0.06596  0.33337  1.0000
  H   H40       1.0  0.10554  0.09029  0.33382  1.0000
  H   H41       1.0  0.10554  0.01533  0.33382  1.0000
  H   H42       1.0  0.05665  0.99077  0.33337  1.0000
  C   C64       1.0  0.44242  0.20004  0.33305  1.0000
  N   N10       1.0  0.41455  0.18664  0.33375  1.0000
  C   C65       1.0  0.40001  0.20009  0.33374  1.0000
  N   N11       1.0  0.41451  0.22806  0.33296  1.0000
  C   C66       1.0  0.44239  0.24258  0.33213  1.0000
  N   N12       1.0  0.45537  0.22780  0.33225  1.0000
  C   C67       1.0  0.37073  0.18544  0.33445  1.0000
  C   C68       1.0  0.35565  0.15635  0.33483  1.0000
  C   C69       1.0  0.32680  0.14187  0.33537  1.0000
  C   C70       1.0  0.31214  0.15613  0.33567  1.0000
  C   C71       1.0  0.32678  0.18504  0.33527  1.0000
  C   C72       1.0  0.35563  0.19942  0.33471  1.0000
  C   C73       1.0  0.45816  0.18653  0.33322  1.0000
  C   C74       1.0  0.44575  0.15755  0.33249  1.0000
  C   C75       1.0  0.46174  0.14465  0.33263  1.0000
  C   C76       1.0  0.49062  0.16052  0.33356  1.0000
  C   C77       1.0  0.50319  0.18935  0.33445  1.0000
  C   C78       1.0  0.48723  0.20207  0.33417  1.0000
  C   C79       1.0  0.45808  0.27182  0.33135  1.0000
  C   C80       1.0  0.48714  0.28541  0.32837  1.0000
  C   C81       1.0  0.50305  0.31411  0.32797  1.0000
  C   C82       1.0  0.49042  0.33030  0.33068  1.0000
  C   C83       1.0  0.46155  0.31722  0.33385  1.0000
  C   C84       1.0  0.44562  0.28834  0.33385  1.0000
  H   H43       1.0  0.45221  0.12370  0.33202  1.0000
  H   H44       1.0  0.42486  0.14545  0.33177  1.0000
  H   H45       1.0  0.52413  0.20137  0.33511  1.0000
  H   H46       1.0  0.49740  0.22304  0.33481  1.0000
  H   H47       1.0  0.49734  0.27465  0.32647  1.0000
  H   H48       1.0  0.52398  0.32307  0.32596  1.0000
  H   H49       1.0  0.42473  0.27950  0.33618  1.0000
  H   H50       1.0  0.45199  0.32861  0.33597  1.0000
  H   H51       1.0  0.36544  0.22039  0.33448  1.0000
  H   H52       1.0  0.31656  0.19581  0.33548  1.0000
  H   H53       1.0  0.31658  0.12088  0.33565  1.0000
  H   H54       1.0  0.36547  0.14521  0.33465  1.0000
  C   C85       1.0  0.79075  0.24245  0.33309  1.0000
  N   N13       1.0  0.80414  0.22797  0.33378  1.0000
  C   C86       1.0  0.79070  0.19999  0.33378  1.0000
  N   N14       1.0  0.76272  0.18652  0.33303  1.0000
  C   C87       1.0  0.74820  0.19987  0.33221  1.0000
  N   N15       1.0  0.76298  0.22764  0.33231  1.0000
  C   C88       1.0  0.80535  0.18536  0.33448  1.0000
  C   C89       1.0  0.83444  0.19936  0.33483  1.0000
  C   C90       1.0  0.84892  0.18499  0.33537  1.0000
  C   C91       1.0  0.83466  0.15608  0.33567  1.0000
  C   C92       1.0  0.80575  0.14181  0.33527  1.0000
  C   C93       1.0  0.79136  0.15627  0.33473  1.0000
  C   C94       1.0  0.80425  0.27169  0.33324  1.0000
  C   C95       1.0  0.83324  0.28826  0.33249  1.0000
  C   C96       1.0  0.84614  0.31714  0.33261  1.0000
  C   C97       1.0  0.83027  0.33016  0.33355  1.0000
  C   C98       1.0  0.80144  0.31391  0.33447  1.0000
  C   C99       1.0  0.78872  0.28523  0.33421  1.0000
  C   C100      1.0  0.71896  0.18632  0.33145  1.0000
  C   C101      1.0  0.70537  0.20178  0.32847  1.0000
  C   C102      1.0  0.67667  0.18900  0.32802  1.0000
  C   C103      1.0  0.66048  0.16018  0.33071  1.0000
  C   C104      1.0  0.67356  0.14438  0.33385  1.0000
  C   C105      1.0  0.70245  0.15734  0.33390  1.0000
  H   H55       1.0  0.86709  0.32857  0.33198  1.0000
  H   H56       1.0  0.84533  0.27946  0.33175  1.0000
  H   H57       1.0  0.78943  0.32283  0.33513  1.0000
  H   H58       1.0  0.76775  0.27443  0.33486  1.0000
  H   H59       1.0  0.71613  0.22275  0.32658  1.0000
  H   H60       1.0  0.66771  0.20097  0.32600  1.0000
  H   H61       1.0  0.71128  0.14529  0.33621  1.0000
  H   H62       1.0  0.66218  0.12343  0.33591  1.0000
  H   H63       1.0  0.77040  0.14512  0.33451  1.0000
  H   H64       1.0  0.79498  0.12081  0.33549  1.0000
  H   H65       1.0  0.86991  0.19578  0.33565  1.0000
  H   H66       1.0  0.84557  0.22033  0.33466  1.0000
  C   C106      1.0  0.74834  0.54838  0.33306  1.0000
  N   N16       1.0  0.76282  0.57625  0.33376  1.0000
  C   C107      1.0  0.79080  0.59080  0.33377  1.0000
  N   N17       1.0  0.80427  0.57629  0.33302  1.0000
  C   C108      1.0  0.79092  0.54842  0.33221  1.0000
  N   N18       1.0  0.76316  0.53543  0.33230  1.0000
  C   C109      1.0  0.80543  0.62008  0.33447  1.0000
  C   C110      1.0  0.79143  0.63516  0.33483  1.0000
  C   C111      1.0  0.80580  0.66401  0.33537  1.0000
  C   C112      1.0  0.83471  0.67866  0.33567  1.0000
  C   C113      1.0  0.84898  0.66403  0.33527  1.0000
  C   C114      1.0  0.83452  0.63518  0.33473  1.0000
  C   C115      1.0  0.71910  0.53265  0.33321  1.0000
  C   C116      1.0  0.70253  0.54506  0.33247  1.0000
  C   C117      1.0  0.67365  0.52907  0.33259  1.0000
  C   C118      1.0  0.66063  0.50019  0.33352  1.0000
  C   C119      1.0  0.67688  0.48761  0.33443  1.0000
  C   C120      1.0  0.70557  0.50357  0.33416  1.0000
  C   C121      1.0  0.80448  0.53274  0.33145  1.0000
  C   C122      1.0  0.78902  0.50367  0.32852  1.0000
  C   C123      1.0  0.80181  0.48777  0.32807  1.0000
  C   C124      1.0  0.83063  0.50041  0.33073  1.0000
  C   C125      1.0  0.84642  0.52928  0.33381  1.0000
  C   C126      1.0  0.83346  0.54521  0.33387  1.0000
  H   H67       1.0  0.66222  0.53860  0.33197  1.0000
  H   H68       1.0  0.71132  0.56595  0.33175  1.0000
  H   H69       1.0  0.66797  0.46668  0.33508  1.0000
  H   H70       1.0  0.71637  0.49340  0.33481  1.0000
  H   H71       1.0  0.76805  0.49347  0.32666  1.0000
  H   H72       1.0  0.78984  0.46684  0.32608  1.0000
  H   H73       1.0  0.84550  0.56609  0.33613  1.0000
  H   H74       1.0  0.86737  0.53885  0.33584  1.0000
  H   H75       1.0  0.84567  0.62536  0.33450  1.0000
  H   H76       1.0  0.86998  0.67425  0.33549  1.0000
  H   H77       1.0  0.79501  0.67422  0.33564  1.0000
  H   H78       1.0  0.77046  0.62533  0.33465  1.0000
  C   C127      1.0  0.28315  0.14163  0.33623  1.0000
  C   C128      1.0  0.26753  0.13381  0.41621  1.0000
  N   N19       1.0  0.23972  0.11990  0.41017  1.0000
  C   C129      1.0  0.22551  0.11280  0.33228  1.0000
  N   N20       1.0  0.18221  0.09115  0.40955  1.0000
  C   C130      1.0  0.15438  0.07723  0.41469  1.0000
  C   C131      1.0  0.27896  0.13953  0.50770  1.0000
  H   H79       1.0  0.30131  0.15071  0.50887  1.0000
  H   H80       1.0  0.27185  0.12022  0.54324  1.0000
  H   H81       1.0  0.27184  0.15172  0.54324  1.0000
  C   C132      1.0  0.14172  0.07090  0.50440  1.0000
  H   H82       1.0  0.15725  0.07866  0.55689  1.0000
  H   H83       1.0  0.12899  0.04875  0.51264  1.0000
  H   H84       1.0  0.12899  0.08032  0.51264  1.0000
  C   C133      1.0  0.84917  0.14159  0.33623  1.0000
  C   C134      1.0  0.85698  0.13379  0.41621  1.0000
  N   N21       1.0  0.87089  0.11989  0.41017  1.0000
  C   C135      1.0  0.87799  0.11279  0.33228  1.0000
  N   N22       1.0  0.89965  0.09115  0.40955  1.0000
  C   C136      1.0  0.91357  0.07723  0.41469  1.0000
  C   C137      1.0  0.85126  0.13950  0.50770  1.0000
  H   H85       1.0  0.84008  0.15067  0.50886  1.0000
  H   H86       1.0  0.87057  0.15171  0.54323  1.0000
  H   H87       1.0  0.83907  0.12019  0.54324  1.0000
  C   C138      1.0  0.91990  0.07090  0.50440  1.0000
  H   H88       1.0  0.91214  0.07867  0.55689  1.0000
  H   H89       1.0  0.94206  0.08033  0.51264  1.0000
  H   H90       1.0  0.91048  0.04875  0.51264  1.0000
  C   C139      1.0  0.84920  0.70766  0.33623  1.0000
  C   C140      1.0  0.85701  0.72328  0.41621  1.0000
  N   N23       1.0  0.87091  0.75109  0.41017  1.0000
  C   C141      1.0  0.87801  0.76529  0.33228  1.0000
  N   N24       1.0  0.89965  0.80859  0.40955  1.0000
  C   C142      1.0  0.91357  0.83642  0.41469  1.0000
  C   C143      1.0  0.85129  0.71185  0.50770  1.0000
  H   H91       1.0  0.84012  0.68950  0.50886  1.0000
  H   H92       1.0  0.83909  0.71896  0.54324  1.0000
  H   H93       1.0  0.87060  0.71896  0.54324  1.0000
  C   C144      1.0  0.91990  0.84908  0.50440  1.0000
  H   H94       1.0  0.91213  0.83355  0.55689  1.0000
  H   H95       1.0  0.91047  0.86181  0.51264  1.0000
  H   H96       1.0  0.94205  0.86181  0.51264  1.0000
  C   C145      1.0  0.59216  0.14299  0.41755  1.0000
  C   C146      1.0  0.61873  0.14640  0.41391  1.0000
  H   H97       1.0  0.62964  0.14981  0.47188  1.0000
  C   C147      1.0  0.55345  0.14122  0.33666  1.0000
  C   C148      1.0  0.50772  0.14876  0.33379  1.0000
  C   C149      1.0  0.51895  0.14690  0.41608  1.0000
  C   C150      1.0  0.54197  0.14324  0.41863  1.0000
  C   C151      1.0  0.55502  0.14374  0.49959  1.0000
  C   C152      1.0  0.57991  0.14358  0.49906  1.0000
  H   H98       1.0  0.54723  0.14557  0.55923  1.0000
  H   H99       1.0  0.58967  0.14531  0.55833  1.0000
  H   H100      1.0  0.51174  0.15049  0.47436  1.0000
  C   C153      1.0  0.84784  0.44926  0.41753  1.0000
  C   C154      1.0  0.84438  0.47240  0.41386  1.0000
  H   H101      1.0  0.84100  0.47989  0.47188  1.0000
  C   C155      1.0  0.84961  0.41232  0.33665  1.0000
  C   C156      1.0  0.84204  0.35902  0.33379  1.0000
  C   C157      1.0  0.84386  0.37212  0.41603  1.0000
  C   C158      1.0  0.84756  0.39882  0.41861  1.0000
  C   C159      1.0  0.84710  0.41138  0.49959  1.0000
  C   C160      1.0  0.84727  0.43644  0.49906  1.0000
  H   H102      1.0  0.84517  0.40172  0.55920  1.0000
  H   H103      1.0  0.84544  0.44442  0.55830  1.0000
  H   H104      1.0  0.84031  0.36135  0.47435  1.0000
  C   C161      1.0  0.54152  0.39867  0.41762  1.0000
  C   C162      1.0  0.51836  0.37209  0.41401  1.0000
  H   H105      1.0  0.51092  0.36117  0.47199  1.0000
  C   C163      1.0  0.57847  0.43736  0.33669  1.0000
  C   C164      1.0  0.63177  0.48309  0.33377  1.0000
  C   C165      1.0  0.61867  0.47182  0.41602  1.0000
  C   C166      1.0  0.59198  0.44883  0.41864  1.0000
  C   C167      1.0  0.57943  0.43580  0.49963  1.0000
  C   C168      1.0  0.55437  0.41092  0.49912  1.0000
  H   H106      1.0  0.58908  0.44358  0.55923  1.0000
  H   H107      1.0  0.54635  0.40114  0.55838  1.0000
  H   H108      1.0  0.62945  0.47905  0.47433  1.0000
