data_image0
_chemical_formula_structural       C2HC2H3N2C3HNO2CHC3HNO2CHC4NC4NH4N2C3H2CHC3H2CHC2HC2H3N2C3HNO2CHC3HNO2CHC4NC4NH4N2C3H2CHC3H2CHC2HC2H3N2C3HNO2CHC3HNO2CHC4NC4NH4N2C3H2CHC3H2CHC2HC2H3N2C3HNO2CHC3HNO2CHC4NC4NH4N2C3H2CHC3H2CH
_chemical_formula_sum              "C112 H72 N32 O16"
_cell_length_a       31.542
_cell_length_b       31.542
_cell_length_c       14.9829
_cell_angle_alpha    90
_cell_angle_beta     90
_cell_angle_gamma    90

_space_group_name_H-M_alt    "P 1"
_space_group_IT_number       1

loop_
  _space_group_symop_operation_xyz
  'x, y, z'

loop_
  _atom_site_type_symbol
  _atom_site_label
  _atom_site_symmetry_multiplicity
  _atom_site_fract_x
  _atom_site_fract_y
  _atom_site_fract_z
  _atom_site_occupancy
  C   C1        1.0  0.49692  0.43654  0.32320  1.0000
  C   C2        1.0  0.46533  0.40480  0.33002  1.0000
  H   H1        1.0  0.02726  0.42604  0.31818  1.0000
  C   C3        1.0  0.04123  0.08991  0.32413  1.0000
  C   C4        1.0  0.01055  0.05753  0.31546  1.0000
  H   H2        1.0  0.48038  0.06762  0.30616  1.0000
  H   H3        1.0  0.10593  0.13941  0.36276  1.0000
  H   H4        1.0  0.39921  0.35842  0.37373  1.0000
  N   N1        1.0  0.03142  0.13169  0.31998  1.0000
  N   N2        1.0  0.47391  0.36272  0.32525  1.0000
  C   C5        1.0  0.00007  0.20085  0.30769  1.0000
  C   C6        1.0  0.96392  0.22568  0.28949  1.0000
  C   C7        1.0  0.96489  0.27063  0.29244  1.0000
  H   H5        1.0  0.93600  0.21094  0.27331  1.0000
  N   N3        1.0  0.92791  0.29342  0.26851  1.0000
  O   O1        1.0  0.89633  0.28248  0.31440  1.0000
  O   O2        1.0  0.91898  0.28812  0.18752  1.0000
  C   C8        1.0  0.99703  0.15619  0.30621  1.0000
  H   H6        1.0  0.96855  0.14194  0.29329  1.0000
  C   C9        1.0  0.30028  0.00124  0.31740  1.0000
  C   C10       1.0  0.27549  0.03741  0.29910  1.0000
  C   C11       1.0  0.23054  0.03642  0.30153  1.0000
  H   H7        1.0  0.29025  0.06529  0.28275  1.0000
  N   N4        1.0  0.20784  0.07338  0.27708  1.0000
  O   O3        1.0  0.21337  0.08223  0.19612  1.0000
  O   O4        1.0  0.21860  0.10500  0.32302  1.0000
  C   C12       1.0  0.34493  0.00422  0.31543  1.0000
  H   H8        1.0  0.35917  0.03268  0.30229  1.0000
  C   C13       1.0  0.48772  0.48088  0.32089  1.0000
  C   C14       1.0  0.42209  0.41648  0.33785  1.0000
  C   C15       1.0  0.41122  0.45976  0.32828  1.0000
  C   C16       1.0  0.44349  0.49061  0.32046  1.0000
  N   N5        1.0  0.39160  0.38677  0.35507  1.0000
  C   C17       1.0  0.02018  0.01334  0.32065  1.0000
  C   C18       1.0  0.06445  0.00417  0.32691  1.0000
  C   C19       1.0  0.09609  0.03588  0.33336  1.0000
  C   C20       1.0  0.08430  0.07919  0.33777  1.0000
  N   N6        1.0  0.11374  0.10987  0.35555  1.0000
  H   H9        1.0  0.14166  0.10246  0.37721  1.0000
  H   H10       1.0  0.36217  0.39445  0.36459  1.0000
  H   H11       1.0  0.43328  0.02103  0.31746  1.0000
  H   H12       1.0  0.07497  0.47375  0.32683  1.0000
  N   N7        1.0  0.13822  0.02730  0.33097  1.0000
  N   N8        1.0  0.36940  0.46960  0.32660  1.0000
  C   C21       1.0  0.00341  0.29206  0.31427  1.0000
  C   C22       1.0  0.03997  0.26699  0.32913  1.0000
  C   C23       1.0  0.03832  0.22247  0.32657  1.0000
  H   H13       1.0  0.06840  0.28090  0.34452  1.0000
  H   H14       1.0  0.06554  0.20607  0.33972  1.0000
  C   C24       1.0  0.00774  0.33667  0.32142  1.0000
  H   H15       1.0  0.03711  0.34981  0.33019  1.0000
  C   C25       1.0  0.20905  0.99793  0.32338  1.0000
  C   C26       1.0  0.23411  0.96140  0.33883  1.0000
  C   C27       1.0  0.27864  0.96302  0.33639  1.0000
  H   H16       1.0  0.22017  0.93299  0.35420  1.0000
  H   H17       1.0  0.29502  0.93581  0.34974  1.0000
  C   C28       1.0  0.16441  0.99356  0.32969  1.0000
  H   H18       1.0  0.15127  0.96419  0.33852  1.0000
  C   C29       1.0  0.49692  0.93654  0.32320  1.0000
  C   C30       1.0  0.46533  0.90480  0.33002  1.0000
  H   H19       1.0  0.02726  0.92604  0.31818  1.0000
  C   C31       1.0  0.04123  0.58991  0.32413  1.0000
  C   C32       1.0  0.01055  0.55752  0.31546  1.0000
  H   H20       1.0  0.48038  0.56762  0.30616  1.0000
  H   H21       1.0  0.10593  0.63941  0.36276  1.0000
  H   H22       1.0  0.39921  0.85842  0.37373  1.0000
  N   N9        1.0  0.03142  0.63169  0.31998  1.0000
  N   N10       1.0  0.47391  0.86272  0.32525  1.0000
  C   C33       1.0  0.00007  0.70085  0.30769  1.0000
  C   C34       1.0  0.96392  0.72568  0.28949  1.0000
  C   C35       1.0  0.96489  0.77063  0.29244  1.0000
  H   H23       1.0  0.93600  0.71095  0.27331  1.0000
  N   N11       1.0  0.92791  0.79342  0.26851  1.0000
  O   O5        1.0  0.89633  0.78248  0.31440  1.0000
  O   O6        1.0  0.91898  0.78812  0.18752  1.0000
  C   C36       1.0  0.99703  0.65619  0.30621  1.0000
  H   H24       1.0  0.96855  0.64194  0.29329  1.0000
  C   C37       1.0  0.30028  0.50124  0.31740  1.0000
  C   C38       1.0  0.27549  0.53741  0.29910  1.0000
  C   C39       1.0  0.23054  0.53642  0.30153  1.0000
  H   H25       1.0  0.29025  0.56529  0.28275  1.0000
  N   N12       1.0  0.20784  0.57339  0.27708  1.0000
  O   O7        1.0  0.21337  0.58223  0.19612  1.0000
  O   O8        1.0  0.21860  0.60500  0.32302  1.0000
  C   C40       1.0  0.34493  0.50422  0.31543  1.0000
  H   H26       1.0  0.35917  0.53268  0.30229  1.0000
  C   C41       1.0  0.48772  0.98088  0.32089  1.0000
  C   C42       1.0  0.42209  0.91648  0.33785  1.0000
  C   C43       1.0  0.41122  0.95976  0.32828  1.0000
  C   C44       1.0  0.44349  0.99061  0.32046  1.0000
  N   N13       1.0  0.39160  0.88677  0.35507  1.0000
  C   C45       1.0  0.02018  0.51334  0.32065  1.0000
  C   C46       1.0  0.06445  0.50417  0.32691  1.0000
  C   C47       1.0  0.09609  0.53588  0.33336  1.0000
  C   C48       1.0  0.08430  0.57918  0.33777  1.0000
  N   N14       1.0  0.11374  0.60987  0.35555  1.0000
  H   H27       1.0  0.14166  0.60246  0.37721  1.0000
  H   H28       1.0  0.36217  0.89445  0.36459  1.0000
  H   H29       1.0  0.43328  0.52103  0.31746  1.0000
  H   H30       1.0  0.07497  0.97375  0.32683  1.0000
  N   N15       1.0  0.13822  0.52730  0.33097  1.0000
  N   N16       1.0  0.36940  0.96960  0.32660  1.0000
  C   C49       1.0  0.00341  0.79206  0.31427  1.0000
  C   C50       1.0  0.03997  0.76699  0.32913  1.0000
  C   C51       1.0  0.03832  0.72247  0.32657  1.0000
  H   H31       1.0  0.06840  0.78090  0.34452  1.0000
  H   H32       1.0  0.06554  0.70607  0.33972  1.0000
  C   C52       1.0  0.00774  0.83667  0.32142  1.0000
  H   H33       1.0  0.03711  0.84981  0.33019  1.0000
  C   C53       1.0  0.20905  0.49793  0.32338  1.0000
  C   C54       1.0  0.23411  0.46140  0.33883  1.0000
  C   C55       1.0  0.27864  0.46303  0.33639  1.0000
  H   H34       1.0  0.22017  0.43299  0.35420  1.0000
  H   H35       1.0  0.29502  0.43581  0.34974  1.0000
  C   C56       1.0  0.16441  0.49356  0.32969  1.0000
  H   H36       1.0  0.15127  0.46419  0.33852  1.0000
  C   C57       1.0  0.99692  0.43654  0.32320  1.0000
  C   C58       1.0  0.96532  0.40480  0.33002  1.0000
  H   H37       1.0  0.52726  0.42604  0.31818  1.0000
  C   C59       1.0  0.54123  0.08991  0.32413  1.0000
  C   C60       1.0  0.51055  0.05753  0.31546  1.0000
  H   H38       1.0  0.98038  0.06762  0.30616  1.0000
  H   H39       1.0  0.60593  0.13941  0.36276  1.0000
  H   H40       1.0  0.89921  0.35842  0.37373  1.0000
  N   N17       1.0  0.53142  0.13169  0.31998  1.0000
  N   N18       1.0  0.97391  0.36272  0.32525  1.0000
  C   C61       1.0  0.50007  0.20085  0.30769  1.0000
  C   C62       1.0  0.46392  0.22568  0.28949  1.0000
  C   C63       1.0  0.46489  0.27063  0.29244  1.0000
  H   H41       1.0  0.43601  0.21094  0.27331  1.0000
  N   N19       1.0  0.42791  0.29342  0.26851  1.0000
  O   O9        1.0  0.39633  0.28248  0.31440  1.0000
  O   O10       1.0  0.41898  0.28812  0.18752  1.0000
  C   C64       1.0  0.49703  0.15619  0.30621  1.0000
  H   H42       1.0  0.46855  0.14194  0.29329  1.0000
  C   C65       1.0  0.80027  0.00124  0.31740  1.0000
  C   C66       1.0  0.77549  0.03741  0.29910  1.0000
  C   C67       1.0  0.73054  0.03642  0.30153  1.0000
  H   H43       1.0  0.79025  0.06529  0.28275  1.0000
  N   N20       1.0  0.70784  0.07338  0.27708  1.0000
  O   O11       1.0  0.71337  0.08223  0.19612  1.0000
  O   O12       1.0  0.71861  0.10500  0.32302  1.0000
  C   C68       1.0  0.84493  0.00422  0.31543  1.0000
  H   H44       1.0  0.85917  0.03268  0.30229  1.0000
  C   C69       1.0  0.98772  0.48088  0.32089  1.0000
  C   C70       1.0  0.92209  0.41648  0.33785  1.0000
  C   C71       1.0  0.91122  0.45976  0.32828  1.0000
  C   C72       1.0  0.94349  0.49061  0.32046  1.0000
  N   N21       1.0  0.89160  0.38677  0.35507  1.0000
  C   C73       1.0  0.52018  0.01334  0.32065  1.0000
  C   C74       1.0  0.56445  0.00417  0.32691  1.0000
  C   C75       1.0  0.59608  0.03588  0.33336  1.0000
  C   C76       1.0  0.58430  0.07919  0.33777  1.0000
  N   N22       1.0  0.61374  0.10987  0.35555  1.0000
  H   H45       1.0  0.64166  0.10246  0.37721  1.0000
  H   H46       1.0  0.86217  0.39445  0.36459  1.0000
  H   H47       1.0  0.93328  0.02103  0.31746  1.0000
  H   H48       1.0  0.57497  0.47375  0.32683  1.0000
  N   N23       1.0  0.63821  0.02730  0.33097  1.0000
  N   N24       1.0  0.86940  0.46960  0.32660  1.0000
  C   C77       1.0  0.50341  0.29206  0.31427  1.0000
  C   C78       1.0  0.53997  0.26699  0.32913  1.0000
  C   C79       1.0  0.53831  0.22247  0.32657  1.0000
  H   H49       1.0  0.56840  0.28090  0.34452  1.0000
  H   H50       1.0  0.56554  0.20607  0.33972  1.0000
  C   C80       1.0  0.50774  0.33667  0.32142  1.0000
  H   H51       1.0  0.53711  0.34981  0.33019  1.0000
  C   C81       1.0  0.70905  0.99793  0.32338  1.0000
  C   C82       1.0  0.73411  0.96140  0.33883  1.0000
  C   C83       1.0  0.77864  0.96302  0.33639  1.0000
  H   H52       1.0  0.72017  0.93299  0.35420  1.0000
  H   H53       1.0  0.79502  0.93581  0.34974  1.0000
  C   C84       1.0  0.66441  0.99356  0.32969  1.0000
  H   H54       1.0  0.65127  0.96419  0.33852  1.0000
  C   C85       1.0  0.99692  0.93654  0.32320  1.0000
  C   C86       1.0  0.96532  0.90480  0.33002  1.0000
  H   H55       1.0  0.52726  0.92604  0.31818  1.0000
  C   C87       1.0  0.54123  0.58991  0.32413  1.0000
  C   C88       1.0  0.51055  0.55752  0.31546  1.0000
  H   H56       1.0  0.98038  0.56762  0.30616  1.0000
  H   H57       1.0  0.60593  0.63941  0.36276  1.0000
  H   H58       1.0  0.89921  0.85842  0.37373  1.0000
  N   N25       1.0  0.53142  0.63169  0.31998  1.0000
  N   N26       1.0  0.97391  0.86272  0.32525  1.0000
  C   C89       1.0  0.50007  0.70085  0.30769  1.0000
  C   C90       1.0  0.46392  0.72568  0.28949  1.0000
  C   C91       1.0  0.46489  0.77063  0.29244  1.0000
  H   H59       1.0  0.43601  0.71095  0.27331  1.0000
  N   N27       1.0  0.42791  0.79342  0.26851  1.0000
  O   O13       1.0  0.39633  0.78248  0.31440  1.0000
  O   O14       1.0  0.41898  0.78812  0.18752  1.0000
  C   C92       1.0  0.49703  0.65619  0.30621  1.0000
  H   H60       1.0  0.46855  0.64194  0.29329  1.0000
  C   C93       1.0  0.80027  0.50124  0.31740  1.0000
  C   C94       1.0  0.77549  0.53741  0.29910  1.0000
  C   C95       1.0  0.73054  0.53642  0.30153  1.0000
  H   H61       1.0  0.79025  0.56529  0.28275  1.0000
  N   N28       1.0  0.70784  0.57339  0.27708  1.0000
  O   O15       1.0  0.71337  0.58223  0.19612  1.0000
  O   O16       1.0  0.71861  0.60500  0.32302  1.0000
  C   C96       1.0  0.84493  0.50422  0.31543  1.0000
  H   H62       1.0  0.85917  0.53268  0.30229  1.0000
  C   C97       1.0  0.98772  0.98088  0.32089  1.0000
  C   C98       1.0  0.92209  0.91648  0.33785  1.0000
  C   C99       1.0  0.91122  0.95976  0.32828  1.0000
  C   C100      1.0  0.94349  0.99061  0.32046  1.0000
  N   N29       1.0  0.89160  0.88677  0.35507  1.0000
  C   C101      1.0  0.52018  0.51334  0.32065  1.0000
  C   C102      1.0  0.56445  0.50417  0.32691  1.0000
  C   C103      1.0  0.59608  0.53588  0.33336  1.0000
  C   C104      1.0  0.58430  0.57918  0.33777  1.0000
  N   N30       1.0  0.61374  0.60987  0.35555  1.0000
  H   H63       1.0  0.64166  0.60246  0.37721  1.0000
  H   H64       1.0  0.86217  0.89445  0.36459  1.0000
  H   H65       1.0  0.93328  0.52103  0.31746  1.0000
  H   H66       1.0  0.57497  0.97375  0.32683  1.0000
  N   N31       1.0  0.63821  0.52730  0.33097  1.0000
  N   N32       1.0  0.86940  0.96960  0.32660  1.0000
  C   C105      1.0  0.50341  0.79206  0.31427  1.0000
  C   C106      1.0  0.53997  0.76699  0.32913  1.0000
  C   C107      1.0  0.53831  0.72247  0.32657  1.0000
  H   H67       1.0  0.56840  0.78090  0.34452  1.0000
  H   H68       1.0  0.56554  0.70607  0.33972  1.0000
  C   C108      1.0  0.50774  0.83667  0.32142  1.0000
  H   H69       1.0  0.53711  0.84981  0.33019  1.0000
  C   C109      1.0  0.70905  0.49793  0.32338  1.0000
  C   C110      1.0  0.73411  0.46140  0.33883  1.0000
  C   C111      1.0  0.77864  0.46303  0.33639  1.0000
  H   H70       1.0  0.72017  0.43299  0.35420  1.0000
  H   H71       1.0  0.79502  0.43581  0.34974  1.0000
  C   C112      1.0  0.66441  0.49356  0.32969  1.0000
  H   H72       1.0  0.65127  0.46419  0.33852  1.0000
