data_image0
_chemical_formula_structural       C5H6C4H4C4HNO2NC3HNO2NCNO2C12H6C6H3C9H3C8H4C5H3C6H2C3HNO2NC3HNO2NC2NO2NCHC2HC4HC2HNC2HCHCH
_chemical_formula_sum              "C84 H42 N12 O12"
_cell_length_a       45.3477
_cell_length_b       45.3533
_cell_length_c       14.3738
_cell_angle_alpha    90
_cell_angle_beta     90
_cell_angle_gamma    119.994

_space_group_name_H-M_alt    "P 1"
_space_group_IT_number       1

loop_
  _space_group_symop_operation_xyz
  'x, y, z'

loop_
  _atom_site_type_symbol
  _atom_site_label
  _atom_site_symmetry_multiplicity
  _atom_site_fract_x
  _atom_site_fract_y
  _atom_site_fract_z
  _atom_site_occupancy
  C   C1        1.0  0.42327  0.59067  0.38781  1.0000
  C   C2        1.0  0.46396  0.84349  0.38512  1.0000
  C   C3        1.0  0.47805  0.87913  0.38108  1.0000
  C   C4        1.0  0.21098  0.63140  0.38495  1.0000
  C   C5        1.0  0.17534  0.60985  0.38091  1.0000
  H   H1        1.0  0.43412  0.55079  0.39075  1.0000
  H   H2        1.0  0.47995  0.83380  0.39266  1.0000
  H   H3        1.0  0.50393  0.89420  0.38562  1.0000
  H   H4        1.0  0.22066  0.65708  0.39230  1.0000
  H   H5        1.0  0.16026  0.62065  0.38524  1.0000
  H   H6        1.0  0.39770  0.57476  0.39786  1.0000
  C   C6        1.0  0.44482  0.57658  0.38371  1.0000
  C   C7        1.0  0.63921  0.45037  0.34233  1.0000
  C   C8        1.0  0.60427  0.19968  0.34136  1.0000
  C   C9        1.0  0.58929  0.16413  0.35275  1.0000
  H   H7        1.0  0.62624  0.48842  0.32311  1.0000
  H   H8        1.0  0.59191  0.20894  0.30179  1.0000
  H   H9        1.0  0.56638  0.14864  0.32138  1.0000
  H   H10       1.0  0.66106  0.46293  0.30377  1.0000
  C   C10       1.0  0.61860  0.46532  0.35359  1.0000
  C   C11       1.0  0.55073  0.50366  0.37835  1.0000
  C   C12       1.0  0.54770  0.51946  0.29736  1.0000
  C   C13       1.0  0.52861  0.53646  0.29658  1.0000
  H   H11       1.0  0.55899  0.51810  0.23707  1.0000
  N   N1        1.0  0.52455  0.55107  0.21404  1.0000
  O   O1        1.0  0.50970  0.52896  0.15205  1.0000
  O   O2        1.0  0.55271  0.57383  0.18290  1.0000
  N   N2        1.0  0.56879  0.48769  0.37308  1.0000
  C   C14       1.0  0.55083  0.05794  0.37863  1.0000
  C   C15       1.0  0.53513  0.03909  0.29758  1.0000
  C   C16       1.0  0.51814  0.00301  0.29685  1.0000
  H   H12       1.0  0.53656  0.05173  0.23722  1.0000
  N   N3        1.0  0.50361  0.98432  0.21428  1.0000
  O   O3        1.0  0.52578  0.99158  0.15245  1.0000
  O   O4        1.0  0.48087  0.98970  0.18288  1.0000
  N   N4        1.0  0.56679  0.09196  0.37331  1.0000
  C   C17       1.0  0.05145  0.52604  0.29686  1.0000
  N   N5        1.0  0.07015  0.53022  0.21428  1.0000
  O   O5        1.0  0.06288  0.54512  0.15247  1.0000
  O   O6        1.0  0.06477  0.50209  0.18287  1.0000
  C   C18       1.0  0.42840  0.82158  0.37834  1.0000
  C   C19       1.0  0.43675  0.62611  0.37784  1.0000
  C   C20       1.0  0.23291  0.61776  0.37838  1.0000
  C   C21       1.0  0.48039  0.59742  0.36951  1.0000
  C   C22       1.0  0.49349  0.63293  0.35967  1.0000
  C   C23       1.0  0.47210  0.64711  0.36381  1.0000
  C   C24       1.0  0.45709  0.89388  0.37014  1.0000
  C   C25       1.0  0.42146  0.87153  0.36354  1.0000
  C   C26       1.0  0.40728  0.83596  0.36763  1.0000
  C   C27       1.0  0.16059  0.57413  0.37016  1.0000
  C   C28       1.0  0.18296  0.56086  0.36379  1.0000
  C   C29       1.0  0.21853  0.58226  0.36790  1.0000
  H   H13       1.0  0.51899  0.64904  0.34921  1.0000
  H   H14       1.0  0.48272  0.67292  0.35618  1.0000
  H   H15       1.0  0.38138  0.82079  0.36234  1.0000
  H   H16       1.0  0.40527  0.88094  0.35549  1.0000
  H   H17       1.0  0.17355  0.53526  0.35590  1.0000
  H   H18       1.0  0.23371  0.57153  0.36276  1.0000
  C   C30       1.0  0.32989  0.67048  0.38317  1.0000
  C   C31       1.0  0.34812  0.70648  0.38314  1.0000
  C   C32       1.0  0.38414  0.72460  0.38316  1.0000
  C   C33       1.0  0.40192  0.70637  0.38309  1.0000
  C   C34       1.0  0.38402  0.67036  0.38311  1.0000
  C   C35       1.0  0.34802  0.65259  0.38309  1.0000
  H   H19       1.0  0.42808  0.71943  0.38279  1.0000
  H   H20       1.0  0.33506  0.71958  0.38288  1.0000
  H   H21       1.0  0.33492  0.62643  0.38280  1.0000
  C   C36       1.0  0.26607  0.63734  0.38105  1.0000
  C   C37       1.0  0.29652  0.65374  0.38247  1.0000
  C   C38       1.0  0.41717  0.63968  0.38076  1.0000
  C   C39       1.0  0.40077  0.65374  0.38232  1.0000
  C   C40       1.0  0.40076  0.75797  0.38245  1.0000
  C   C41       1.0  0.41482  0.78842  0.38103  1.0000
  C   C42       1.0  0.12548  0.55197  0.36446  1.0000
  C   C43       1.0  0.47005  0.92900  0.36448  1.0000
  C   C44       1.0  0.50257  0.58447  0.36398  1.0000
  H   H22       1.0  0.52674  0.60025  0.34646  1.0000
  H   H23       1.0  0.45424  0.93738  0.34703  1.0000
  H   H24       1.0  0.11711  0.52779  0.34702  1.0000
  C   C45       1.0  0.63562  0.22210  0.38457  1.0000
  C   C46       1.0  0.63000  0.41877  0.38441  1.0000
  C   C47       1.0  0.58831  0.44915  0.40714  1.0000
  C   C48       1.0  0.57938  0.41741  0.44861  1.0000
  C   C49       1.0  0.59981  0.40237  0.43746  1.0000
  C   C50       1.0  0.60519  0.15003  0.40761  1.0000
  C   C51       1.0  0.63668  0.17289  0.45027  1.0000
  C   C52       1.0  0.65173  0.20834  0.43896  1.0000
  H   H25       1.0  0.55778  0.40478  0.48806  1.0000
  H   H26       1.0  0.59242  0.37946  0.46910  1.0000
  H   H27       1.0  0.67445  0.22387  0.47150  1.0000
  H   H28       1.0  0.64909  0.16393  0.49072  1.0000
  C   C53       1.0  0.71703  0.33689  0.37047  1.0000
  C   C54       1.0  0.68102  0.31897  0.37033  1.0000
  C   C55       1.0  0.66343  0.33739  0.37049  1.0000
  C   C56       1.0  0.68153  0.37340  0.37037  1.0000
  C   C57       1.0  0.71753  0.39098  0.37049  1.0000
  H   H29       1.0  0.63727  0.32448  0.37118  1.0000
  H   H30       1.0  0.72995  0.32365  0.37115  1.0000
  H   H31       1.0  0.73077  0.41714  0.37119  1.0000
  C   C58       1.0  0.64895  0.40462  0.37609  1.0000
  C   C59       1.0  0.66499  0.39022  0.37212  1.0000
  C   C60       1.0  0.66419  0.28562  0.37209  1.0000
  C   C61       1.0  0.64978  0.25518  0.37612  1.0000
  C   C62       1.0  0.59085  0.11513  0.42315  1.0000
  C   C63       1.0  0.56769  0.46346  0.42252  1.0000
  H   H32       1.0  0.55047  0.45364  0.47312  1.0000
  H   H33       1.0  0.60050  0.10775  0.47423  1.0000
  C   C64       1.0  0.51262  0.53830  0.37961  1.0000
  C   C65       1.0  0.51546  0.52260  0.46172  1.0000
  C   C66       1.0  0.53472  0.50583  0.46037  1.0000
  H   H34       1.0  0.53701  0.49518  0.52063  1.0000
  N   N6        1.0  0.49925  0.52437  0.54404  1.0000
  O   O7        1.0  0.52054  0.53973  0.60756  1.0000
  O   O8        1.0  0.47786  0.49519  0.57277  1.0000
  N   N7        1.0  0.49366  0.55330  0.38216  1.0000
  C   C67       1.0  0.51622  0.98520  0.37998  1.0000
  C   C68       1.0  0.53181  0.00374  0.46215  1.0000
  C   C69       1.0  0.54856  0.03976  0.46076  1.0000
  H   H35       1.0  0.55913  0.05270  0.52107  1.0000
  N   N8        1.0  0.52995  0.98578  0.54458  1.0000
  O   O9        1.0  0.51450  0.99170  0.60788  1.0000
  O   O10       1.0  0.55910  0.99359  0.57362  1.0000
  N   N9        1.0  0.50123  0.95125  0.38256  1.0000
  C   C70       1.0  0.06926  0.54192  0.37999  1.0000
  C   C71       1.0  0.05072  0.53896  0.46217  1.0000
  N   N10       1.0  0.06868  0.55506  0.54461  1.0000
  O   O11       1.0  0.06276  0.53369  0.60788  1.0000
  O   O12       1.0  0.06086  0.57639  0.57367  1.0000
  N   N11       1.0  0.10322  0.56089  0.38258  1.0000
  C   C72       1.0  0.85477  0.41550  0.34120  1.0000
  H   H36       1.0  0.84552  0.39393  0.30146  1.0000
  C   C73       1.0  0.83233  0.42437  0.38465  1.0000
  C   C74       1.0  0.84608  0.45418  0.43926  1.0000
  H   H37       1.0  0.83053  0.46132  0.47194  1.0000
  C   C75       1.0  0.73545  0.37288  0.37033  1.0000
  C   C76       1.0  0.79924  0.40544  0.37616  1.0000
  C   C77       1.0  0.76881  0.38942  0.37210  1.0000
  C   C78       1.0  0.89032  0.43608  0.35262  1.0000
  H   H38       1.0  0.90582  0.42871  0.32104  1.0000
  C   C79       1.0  0.99651  0.50377  0.37866  1.0000
  C   C80       1.0  0.01537  0.50694  0.29760  1.0000
  H   H39       1.0  0.00272  0.49573  0.23723  1.0000
  N   N12       1.0  0.96249  0.48571  0.37335  1.0000
  C   C81       1.0  0.90440  0.46602  0.40767  1.0000
  C   C82       1.0  0.88153  0.47459  0.45056  1.0000
  H   H40       1.0  0.89047  0.49592  0.49114  1.0000
  C   C83       1.0  0.93931  0.48661  0.42315  1.0000
  H   H41       1.0  0.94669  0.50365  0.47422  1.0000
  C   C84       1.0  0.01469  0.51968  0.46078  1.0000
  H   H42       1.0  0.00175  0.51730  0.52110  1.0000
