data_image0
_chemical_formula_structural       C7H4C2HC3HN2O4C6HC6H3N4O6C18H12C7H2N2O6C7H4C2HC3HN2O4C6HC6H3N4O6C18H12C7H2N2O6C7H4C2HC3HN2O4C6HC6H3N4O6C18H12C7H2N2O6C7H4C2HC3HN2O4C6HC6H3N4O6C18H12C7H2N2O6
_chemical_formula_sum              "C196 H96 N32 O64"
_cell_length_a       32.7558
_cell_length_b       32.7562
_cell_length_c       15.0051
_cell_angle_alpha    90
_cell_angle_beta     90
_cell_angle_gamma    90.0515

_space_group_name_H-M_alt    "P 1"
_space_group_IT_number       1

loop_
  _space_group_symop_operation_xyz
  'x, y, z'

loop_
  _atom_site_type_symbol
  _atom_site_label
  _atom_site_symmetry_multiplicity
  _atom_site_fract_x
  _atom_site_fract_y
  _atom_site_fract_z
  _atom_site_occupancy
  C   C1        1.0  0.05019  0.03294  0.00506  1.0000
  C   C2        1.0  0.08418  0.02921  0.06182  1.0000
  C   C3        1.0  0.09985  0.49033  0.08374  1.0000
  C   C4        1.0  0.07821  0.45551  0.05465  1.0000
  C   C5        1.0  0.40647  0.46531  0.03843  1.0000
  C   C6        1.0  0.39118  0.00235  0.07389  1.0000
  C   C7        1.0  0.41382  0.03825  0.05614  1.0000
  H   H1        1.0  0.09930  0.05515  0.08083  1.0000
  H   H2        1.0  0.08876  0.42684  0.06893  1.0000
  H   H3        1.0  0.39134  0.43837  0.04837  1.0000
  H   H4        1.0  0.40496  0.06570  0.08225  1.0000
  C   C8        1.0  0.03152  0.20444  0.26526  1.0000
  C   C9        1.0  0.02814  0.16257  0.28749  1.0000
  H   H5        1.0  0.05153  0.14349  0.27012  1.0000
  C   C10       1.0  0.01300  0.35913  0.34024  1.0000
  C   C11       1.0  0.99231  0.34518  0.26352  1.0000
  C   C12       1.0  0.49040  0.30305  0.24234  1.0000
  H   H6        1.0  0.97707  0.36567  0.22420  1.0000
  N   N1        1.0  0.46877  0.28881  0.16677  1.0000
  N   N2        1.0  0.06633  0.21988  0.22043  1.0000
  O   O1        1.0  0.48391  0.30276  0.09609  1.0000
  O   O2        1.0  0.07006  0.20405  0.14462  1.0000
  O   O3        1.0  0.93173  0.29863  0.16994  1.0000
  O   O4        1.0  0.09849  0.21354  0.26393  1.0000
  C   C13       1.0  0.35191  0.50393  0.11609  1.0000
  C   C14       1.0  0.33690  0.47131  0.16862  1.0000
  C   C15       1.0  0.29504  0.46796  0.19095  1.0000
  C   C16       1.0  0.26767  0.49898  0.16339  1.0000
  C   C17       1.0  0.28266  0.03387  0.11789  1.0000
  C   C18       1.0  0.32444  0.03585  0.09516  1.0000
  H   H7        1.0  0.33365  0.05940  0.05515  1.0000
  C   C19       1.0  0.22519  0.99032  0.15622  1.0000
  C   C20       1.0  0.19642  0.00883  0.21421  1.0000
  C   C21       1.0  0.15430  0.00690  0.19289  1.0000
  C   C22       1.0  0.14048  0.98654  0.11565  1.0000
  C   C23       1.0  0.16949  0.96713  0.06055  1.0000
  C   C24       1.0  0.21164  0.96916  0.07903  1.0000
  H   H8        1.0  0.13373  0.02180  0.23260  1.0000
  H   H9        1.0  0.16040  0.95380  0.00203  1.0000
  H   H10       1.0  0.35598  0.44791  0.18592  1.0000
  N   N3        1.0  0.24039  0.95271  0.01802  1.0000
  N   N4        1.0  0.21055  0.53007  0.29039  1.0000
  N   N5        1.0  0.27954  0.43309  0.23543  1.0000
  N   N6        1.0  0.25516  0.06468  0.08952  1.0000
  O   O5        1.0  0.23550  0.91497  0.00754  1.0000
  O   O6        1.0  0.26433  0.09876  0.12236  1.0000
  O   O7        1.0  0.29542  0.42912  0.31113  1.0000
  O   O8        1.0  0.25410  0.06784  0.00607  1.0000
  O   O9        1.0  0.28577  0.40102  0.19153  1.0000
  O   O10       1.0  0.19661  0.51449  0.36062  1.0000
  C   C25       1.0  0.50910  0.39972  0.37233  1.0000
  C   C26       1.0  0.47020  0.41530  0.39444  1.0000
  C   C27       1.0  0.46647  0.44918  0.45151  1.0000
  C   C28       1.0  0.50118  0.46763  0.49156  1.0000
  C   C29       1.0  0.03982  0.45542  0.45753  1.0000
  C   C30       1.0  0.04390  0.42147  0.40112  1.0000
  C   C31       1.0  0.49806  0.00145  0.56144  1.0000
  C   C32       1.0  0.49834  0.03857  0.49998  1.0000
  C   C33       1.0  0.03485  0.05841  0.47320  1.0000
  C   C34       1.0  0.03424  0.09318  0.41823  1.0000
  C   C35       1.0  0.49721  0.10836  0.38252  1.0000
  C   C36       1.0  0.46133  0.08567  0.40002  1.0000
  C   C37       1.0  0.46197  0.05163  0.45698  1.0000
  C   C38       1.0  0.46096  0.00120  0.62299  1.0000
  C   C39       1.0  0.03192  0.49825  0.63123  1.0000
  C   C40       1.0  0.04432  0.45958  0.66474  1.0000
  C   C41       1.0  0.44123  0.46469  0.65011  1.0000
  C   C42       1.0  0.44783  0.03760  0.66577  1.0000
  H   H11       1.0  0.04074  0.06169  0.65542  1.0000
  H   H12       1.0  0.03073  0.43339  0.64245  1.0000
  H   H13       1.0  0.45102  0.43702  0.62726  1.0000
  H   H14       1.0  0.46239  0.06465  0.65368  1.0000
  H   H15       1.0  0.43493  0.03702  0.46892  1.0000
  H   H16       1.0  0.43389  0.09451  0.37379  1.0000
  H   H17       1.0  0.06118  0.10832  0.40827  1.0000
  H   H18       1.0  0.06252  0.04865  0.49613  1.0000
  H   H19       1.0  0.06602  0.46908  0.47956  1.0000
  H   H20       1.0  0.43773  0.45853  0.46811  1.0000
  H   H21       1.0  0.44426  0.40000  0.37603  1.0000
  H   H22       1.0  0.07259  0.41110  0.38629  1.0000
  C   C43       1.0  0.49560  0.14761  0.34028  1.0000
  C   C44       1.0  0.46374  0.17509  0.36146  1.0000
  C   C45       1.0  0.46581  0.21690  0.33897  1.0000
  C   C46       1.0  0.50063  0.23190  0.29326  1.0000
  C   C47       1.0  0.50933  0.27438  0.29992  1.0000
  C   C48       1.0  0.53085  0.28804  0.37652  1.0000
  C   C49       1.0  0.03280  0.33020  0.39489  1.0000
  H   H23       1.0  0.04638  0.33937  0.45308  1.0000
  H   H24       1.0  0.44029  0.16595  0.40184  1.0000
  N   N7        1.0  0.54771  0.25938  0.43720  1.0000
  N   N8        1.0  0.43516  0.24446  0.36791  1.0000
  O   O11       1.0  0.40096  0.23543  0.33549  1.0000
  O   O12       1.0  0.53083  0.26129  0.51233  1.0000
  O   O13       1.0  0.43224  0.24544  0.45141  1.0000
  O   O14       1.0  0.58548  0.26443  0.44680  1.0000
  O   O15       1.0  0.20061  0.56710  0.28819  1.0000
  O   O16       1.0  0.23844  0.96994  0.60995  1.0000
  C   C50       1.0  0.05019  0.53294  0.00506  1.0000
  C   C51       1.0  0.08418  0.52921  0.06182  1.0000
  C   C52       1.0  0.09985  0.99033  0.08374  1.0000
  C   C53       1.0  0.07821  0.95551  0.05465  1.0000
  C   C54       1.0  0.40647  0.96531  0.03843  1.0000
  C   C55       1.0  0.39118  0.50235  0.07389  1.0000
  C   C56       1.0  0.41382  0.53825  0.05614  1.0000
  H   H25       1.0  0.09930  0.55515  0.08083  1.0000
  H   H26       1.0  0.08876  0.92684  0.06893  1.0000
  H   H27       1.0  0.39135  0.93837  0.04837  1.0000
  H   H28       1.0  0.40496  0.56569  0.08225  1.0000
  C   C57       1.0  0.03152  0.70444  0.26526  1.0000
  C   C58       1.0  0.02814  0.66257  0.28749  1.0000
  H   H29       1.0  0.05153  0.64348  0.27012  1.0000
  C   C59       1.0  0.01300  0.85913  0.34024  1.0000
  C   C60       1.0  0.99231  0.84518  0.26352  1.0000
  C   C61       1.0  0.49040  0.80305  0.24234  1.0000
  H   H30       1.0  0.97707  0.86567  0.22420  1.0000
  N   N9        1.0  0.46877  0.78881  0.16677  1.0000
  N   N10       1.0  0.06633  0.71988  0.22043  1.0000
  O   O17       1.0  0.48392  0.80276  0.09609  1.0000
  O   O18       1.0  0.07006  0.70405  0.14462  1.0000
  O   O19       1.0  0.93173  0.79863  0.16994  1.0000
  O   O20       1.0  0.09849  0.71354  0.26392  1.0000
  C   C62       1.0  0.35191  0.00393  0.11609  1.0000
  C   C63       1.0  0.33690  0.97131  0.16862  1.0000
  C   C64       1.0  0.29504  0.96796  0.19095  1.0000
  C   C65       1.0  0.26767  0.99898  0.16339  1.0000
  C   C66       1.0  0.28266  0.53387  0.11788  1.0000
  C   C67       1.0  0.32444  0.53584  0.09516  1.0000
  H   H31       1.0  0.33365  0.55940  0.05515  1.0000
  C   C68       1.0  0.22519  0.49032  0.15622  1.0000
  C   C69       1.0  0.19642  0.50883  0.21421  1.0000
  C   C70       1.0  0.15430  0.50689  0.19289  1.0000
  C   C71       1.0  0.14048  0.48654  0.11565  1.0000
  C   C72       1.0  0.16949  0.46713  0.06055  1.0000
  C   C73       1.0  0.21164  0.46916  0.07903  1.0000
  H   H32       1.0  0.13373  0.52180  0.23260  1.0000
  H   H33       1.0  0.16040  0.45380  0.00203  1.0000
  H   H34       1.0  0.35598  0.94790  0.18592  1.0000
  N   N11       1.0  0.24039  0.45271  0.01802  1.0000
  N   N12       1.0  0.21055  0.03007  0.29039  1.0000
  N   N13       1.0  0.27954  0.93309  0.23543  1.0000
  N   N14       1.0  0.25516  0.56468  0.08952  1.0000
  O   O21       1.0  0.23550  0.41497  0.00754  1.0000
  O   O22       1.0  0.26433  0.59876  0.12236  1.0000
  O   O23       1.0  0.29542  0.92912  0.31113  1.0000
  O   O24       1.0  0.25410  0.56784  0.00607  1.0000
  O   O25       1.0  0.28577  0.90102  0.19152  1.0000
  O   O26       1.0  0.19661  0.01449  0.36062  1.0000
  C   C74       1.0  0.50910  0.89972  0.37233  1.0000
  C   C75       1.0  0.47020  0.91530  0.39444  1.0000
  C   C76       1.0  0.46647  0.94918  0.45151  1.0000
  C   C77       1.0  0.50118  0.96763  0.49156  1.0000
  C   C78       1.0  0.03982  0.95542  0.45753  1.0000
  C   C79       1.0  0.04390  0.92147  0.40112  1.0000
  C   C80       1.0  0.49806  0.50145  0.56144  1.0000
  C   C81       1.0  0.49834  0.53857  0.49998  1.0000
  C   C82       1.0  0.03485  0.55841  0.47320  1.0000
  C   C83       1.0  0.03424  0.59318  0.41823  1.0000
  C   C84       1.0  0.49721  0.60836  0.38252  1.0000
  C   C85       1.0  0.46133  0.58567  0.40002  1.0000
  C   C86       1.0  0.46198  0.55163  0.45698  1.0000
  C   C87       1.0  0.46096  0.50120  0.62299  1.0000
  C   C88       1.0  0.03192  0.99825  0.63123  1.0000
  C   C89       1.0  0.04432  0.95958  0.66474  1.0000
  C   C90       1.0  0.44123  0.96469  0.65011  1.0000
  C   C91       1.0  0.44783  0.53760  0.66577  1.0000
  H   H35       1.0  0.04074  0.56169  0.65542  1.0000
  H   H36       1.0  0.03073  0.93339  0.64245  1.0000
  H   H37       1.0  0.45102  0.93702  0.62726  1.0000
  H   H38       1.0  0.46239  0.56465  0.65368  1.0000
  H   H39       1.0  0.43493  0.53702  0.46892  1.0000
  H   H40       1.0  0.43389  0.59451  0.37379  1.0000
  H   H41       1.0  0.06118  0.60832  0.40827  1.0000
  H   H42       1.0  0.06252  0.54865  0.49613  1.0000
  H   H43       1.0  0.06602  0.96908  0.47956  1.0000
  H   H44       1.0  0.43773  0.95853  0.46811  1.0000
  H   H45       1.0  0.44426  0.90000  0.37603  1.0000
  H   H46       1.0  0.07259  0.91110  0.38629  1.0000
  C   C92       1.0  0.49560  0.64761  0.34028  1.0000
  C   C93       1.0  0.46374  0.67509  0.36146  1.0000
  C   C94       1.0  0.46581  0.71690  0.33897  1.0000
  C   C95       1.0  0.50063  0.73190  0.29326  1.0000
  C   C96       1.0  0.50933  0.77438  0.29992  1.0000
  C   C97       1.0  0.53085  0.78804  0.37652  1.0000
  C   C98       1.0  0.03280  0.83020  0.39489  1.0000
  H   H47       1.0  0.04638  0.83937  0.45308  1.0000
  H   H48       1.0  0.44029  0.66595  0.40184  1.0000
  N   N15       1.0  0.54772  0.75938  0.43720  1.0000
  N   N16       1.0  0.43516  0.74446  0.36791  1.0000
  O   O27       1.0  0.40096  0.73543  0.33550  1.0000
  O   O28       1.0  0.53084  0.76129  0.51233  1.0000
  O   O29       1.0  0.43225  0.74544  0.45141  1.0000
  O   O30       1.0  0.58549  0.76442  0.44679  1.0000
  O   O31       1.0  0.20061  0.06710  0.28819  1.0000
  O   O32       1.0  0.23844  0.46995  0.60995  1.0000
  C   C99       1.0  0.55019  0.03294  0.00506  1.0000
  C   C100      1.0  0.58418  0.02921  0.06182  1.0000
  C   C101      1.0  0.59985  0.49033  0.08374  1.0000
  C   C102      1.0  0.57821  0.45551  0.05465  1.0000
  C   C103      1.0  0.90647  0.46531  0.03843  1.0000
  C   C104      1.0  0.89118  0.00235  0.07389  1.0000
  C   C105      1.0  0.91382  0.03825  0.05614  1.0000
  H   H49       1.0  0.59930  0.05515  0.08083  1.0000
  H   H50       1.0  0.58876  0.42684  0.06893  1.0000
  H   H51       1.0  0.89135  0.43837  0.04837  1.0000
  H   H52       1.0  0.90496  0.06570  0.08225  1.0000
  C   C106      1.0  0.53152  0.20444  0.26526  1.0000
  C   C107      1.0  0.52814  0.16257  0.28749  1.0000
  H   H53       1.0  0.55153  0.14349  0.27012  1.0000
  C   C108      1.0  0.51300  0.35913  0.34024  1.0000
  C   C109      1.0  0.49231  0.34518  0.26352  1.0000
  C   C110      1.0  0.99040  0.30305  0.24234  1.0000
  H   H54       1.0  0.47707  0.36567  0.22420  1.0000
  N   N17       1.0  0.96877  0.28881  0.16677  1.0000
  N   N18       1.0  0.56633  0.21988  0.22043  1.0000
  O   O33       1.0  0.98392  0.30276  0.09609  1.0000
  O   O34       1.0  0.57007  0.20405  0.14462  1.0000
  O   O35       1.0  0.43173  0.29863  0.16994  1.0000
  O   O36       1.0  0.59849  0.21354  0.26393  1.0000
  C   C111      1.0  0.85191  0.50393  0.11609  1.0000
  C   C112      1.0  0.83690  0.47131  0.16862  1.0000
  C   C113      1.0  0.79504  0.46796  0.19095  1.0000
  C   C114      1.0  0.76767  0.49898  0.16339  1.0000
  C   C115      1.0  0.78266  0.03387  0.11789  1.0000
  C   C116      1.0  0.82444  0.03585  0.09516  1.0000
  H   H55       1.0  0.83365  0.05940  0.05515  1.0000
  C   C117      1.0  0.72519  0.99032  0.15622  1.0000
  C   C118      1.0  0.69642  0.00883  0.21421  1.0000
  C   C119      1.0  0.65430  0.00690  0.19289  1.0000
  C   C120      1.0  0.64048  0.98654  0.11565  1.0000
  C   C121      1.0  0.66949  0.96713  0.06055  1.0000
  C   C122      1.0  0.71164  0.96916  0.07903  1.0000
  H   H56       1.0  0.63373  0.02180  0.23260  1.0000
  H   H57       1.0  0.66040  0.95380  0.00203  1.0000
  H   H58       1.0  0.85598  0.44791  0.18592  1.0000
  N   N19       1.0  0.74039  0.95271  0.01802  1.0000
  N   N20       1.0  0.71055  0.53007  0.29039  1.0000
  N   N21       1.0  0.77953  0.43309  0.23543  1.0000
  N   N22       1.0  0.75516  0.06468  0.08952  1.0000
  O   O37       1.0  0.73550  0.91497  0.00754  1.0000
  O   O38       1.0  0.76433  0.09876  0.12236  1.0000
  O   O39       1.0  0.79542  0.42912  0.31113  1.0000
  O   O40       1.0  0.75410  0.06784  0.00607  1.0000
  O   O41       1.0  0.78577  0.40102  0.19153  1.0000
  O   O42       1.0  0.69661  0.51449  0.36062  1.0000
  C   C123      1.0  0.00910  0.39972  0.37233  1.0000
  C   C124      1.0  0.97020  0.41530  0.39444  1.0000
  C   C125      1.0  0.96647  0.44918  0.45151  1.0000
  C   C126      1.0  0.00118  0.46763  0.49156  1.0000
  C   C127      1.0  0.53983  0.45542  0.45753  1.0000
  C   C128      1.0  0.54390  0.42147  0.40112  1.0000
  C   C129      1.0  0.99806  0.00145  0.56144  1.0000
  C   C130      1.0  0.99834  0.03857  0.49998  1.0000
  C   C131      1.0  0.53485  0.05841  0.47320  1.0000
  C   C132      1.0  0.53423  0.09318  0.41823  1.0000
  C   C133      1.0  0.99721  0.10836  0.38252  1.0000
  C   C134      1.0  0.96133  0.08567  0.40002  1.0000
  C   C135      1.0  0.96198  0.05163  0.45698  1.0000
  C   C136      1.0  0.96096  0.00120  0.62299  1.0000
  C   C137      1.0  0.53192  0.49825  0.63123  1.0000
  C   C138      1.0  0.54431  0.45958  0.66474  1.0000
  C   C139      1.0  0.94123  0.46469  0.65011  1.0000
  C   C140      1.0  0.94783  0.03760  0.66577  1.0000
  H   H59       1.0  0.54074  0.06169  0.65542  1.0000
  H   H60       1.0  0.53073  0.43339  0.64245  1.0000
  H   H61       1.0  0.95102  0.43702  0.62726  1.0000
  H   H62       1.0  0.96239  0.06465  0.65368  1.0000
  H   H63       1.0  0.93493  0.03702  0.46892  1.0000
  H   H64       1.0  0.93389  0.09451  0.37379  1.0000
  H   H65       1.0  0.56117  0.10832  0.40827  1.0000
  H   H66       1.0  0.56252  0.04865  0.49613  1.0000
  H   H67       1.0  0.56602  0.46908  0.47956  1.0000
  H   H68       1.0  0.93773  0.45853  0.46811  1.0000
  H   H69       1.0  0.94426  0.40000  0.37603  1.0000
  H   H70       1.0  0.57259  0.41110  0.38629  1.0000
  C   C141      1.0  0.99560  0.14761  0.34028  1.0000
  C   C142      1.0  0.96374  0.17509  0.36146  1.0000
  C   C143      1.0  0.96581  0.21690  0.33897  1.0000
  C   C144      1.0  0.00063  0.23190  0.29326  1.0000
  C   C145      1.0  0.00933  0.27438  0.29992  1.0000
  C   C146      1.0  0.03085  0.28804  0.37652  1.0000
  C   C147      1.0  0.53280  0.33020  0.39489  1.0000
  H   H71       1.0  0.54638  0.33937  0.45308  1.0000
  H   H72       1.0  0.94029  0.16595  0.40184  1.0000
  N   N23       1.0  0.04772  0.25938  0.43720  1.0000
  N   N24       1.0  0.93516  0.24446  0.36791  1.0000
  O   O43       1.0  0.90096  0.23543  0.33549  1.0000
  O   O44       1.0  0.03084  0.26129  0.51233  1.0000
  O   O45       1.0  0.93225  0.24544  0.45141  1.0000
  O   O46       1.0  0.08548  0.26443  0.44680  1.0000
  O   O47       1.0  0.70061  0.56710  0.28819  1.0000
  O   O48       1.0  0.73843  0.96994  0.60995  1.0000
  C   C148      1.0  0.55019  0.53294  0.00506  1.0000
  C   C149      1.0  0.58418  0.52921  0.06182  1.0000
  C   C150      1.0  0.59985  0.99033  0.08374  1.0000
  C   C151      1.0  0.57821  0.95551  0.05465  1.0000
  C   C152      1.0  0.90647  0.96531  0.03843  1.0000
  C   C153      1.0  0.89118  0.50235  0.07389  1.0000
  C   C154      1.0  0.91382  0.53825  0.05614  1.0000
  H   H73       1.0  0.59930  0.55515  0.08083  1.0000
  H   H74       1.0  0.58876  0.92684  0.06893  1.0000
  H   H75       1.0  0.89135  0.93837  0.04837  1.0000
  H   H76       1.0  0.90496  0.56569  0.08225  1.0000
  C   C155      1.0  0.53152  0.70444  0.26526  1.0000
  C   C156      1.0  0.52814  0.66257  0.28749  1.0000
  H   H77       1.0  0.55153  0.64348  0.27012  1.0000
  C   C157      1.0  0.51300  0.85913  0.34024  1.0000
  C   C158      1.0  0.49231  0.84518  0.26352  1.0000
  C   C159      1.0  0.99040  0.80305  0.24234  1.0000
  H   H78       1.0  0.47707  0.86567  0.22420  1.0000
  N   N25       1.0  0.96877  0.78881  0.16677  1.0000
  N   N26       1.0  0.56632  0.71988  0.22043  1.0000
  O   O49       1.0  0.98391  0.80276  0.09609  1.0000
  O   O50       1.0  0.57006  0.70405  0.14462  1.0000
  O   O51       1.0  0.43173  0.79863  0.16994  1.0000
  O   O52       1.0  0.59849  0.71354  0.26392  1.0000
  C   C160      1.0  0.85191  0.00393  0.11609  1.0000
  C   C161      1.0  0.83690  0.97131  0.16862  1.0000
  C   C162      1.0  0.79504  0.96796  0.19095  1.0000
  C   C163      1.0  0.76767  0.99898  0.16339  1.0000
  C   C164      1.0  0.78266  0.53387  0.11788  1.0000
  C   C165      1.0  0.82444  0.53584  0.09516  1.0000
  H   H79       1.0  0.83365  0.55940  0.05515  1.0000
  C   C166      1.0  0.72519  0.49032  0.15622  1.0000
  C   C167      1.0  0.69641  0.50883  0.21421  1.0000
  C   C168      1.0  0.65430  0.50689  0.19289  1.0000
  C   C169      1.0  0.64048  0.48654  0.11565  1.0000
  C   C170      1.0  0.66949  0.46713  0.06055  1.0000
  C   C171      1.0  0.71164  0.46916  0.07903  1.0000
  H   H80       1.0  0.63373  0.52180  0.23260  1.0000
  H   H81       1.0  0.66040  0.45380  0.00203  1.0000
  H   H82       1.0  0.85598  0.94790  0.18592  1.0000
  N   N27       1.0  0.74039  0.45271  0.01802  1.0000
  N   N28       1.0  0.71055  0.03007  0.29039  1.0000
  N   N29       1.0  0.77953  0.93309  0.23543  1.0000
  N   N30       1.0  0.75515  0.56468  0.08952  1.0000
  O   O53       1.0  0.73550  0.41497  0.00754  1.0000
  O   O54       1.0  0.76433  0.59876  0.12236  1.0000
  O   O55       1.0  0.79542  0.92912  0.31113  1.0000
  O   O56       1.0  0.75410  0.56784  0.00607  1.0000
  O   O57       1.0  0.78577  0.90102  0.19152  1.0000
  O   O58       1.0  0.69661  0.01449  0.36062  1.0000
  C   C172      1.0  0.00910  0.89972  0.37233  1.0000
  C   C173      1.0  0.97020  0.91530  0.39444  1.0000
  C   C174      1.0  0.96647  0.94918  0.45151  1.0000
  C   C175      1.0  0.00118  0.96763  0.49156  1.0000
  C   C176      1.0  0.53982  0.95542  0.45753  1.0000
  C   C177      1.0  0.54390  0.92147  0.40112  1.0000
  C   C178      1.0  0.99806  0.50145  0.56144  1.0000
  C   C179      1.0  0.99835  0.53857  0.49998  1.0000
  C   C180      1.0  0.53485  0.55841  0.47320  1.0000
  C   C181      1.0  0.53424  0.59318  0.41823  1.0000
  C   C182      1.0  0.99721  0.60836  0.38252  1.0000
  C   C183      1.0  0.96132  0.58567  0.40002  1.0000
  C   C184      1.0  0.96198  0.55163  0.45698  1.0000
  C   C185      1.0  0.96096  0.50120  0.62299  1.0000
  C   C186      1.0  0.53192  0.99825  0.63123  1.0000
  C   C187      1.0  0.54431  0.95958  0.66474  1.0000
  C   C188      1.0  0.94123  0.96469  0.65011  1.0000
  C   C189      1.0  0.94783  0.53760  0.66577  1.0000
  H   H83       1.0  0.54074  0.56169  0.65542  1.0000
  H   H84       1.0  0.53073  0.93339  0.64245  1.0000
  H   H85       1.0  0.95102  0.93702  0.62726  1.0000
  H   H86       1.0  0.96239  0.56465  0.65368  1.0000
  H   H87       1.0  0.93493  0.53702  0.46892  1.0000
  H   H88       1.0  0.93389  0.59451  0.37379  1.0000
  H   H89       1.0  0.56117  0.60832  0.40827  1.0000
  H   H90       1.0  0.56252  0.54865  0.49613  1.0000
  H   H91       1.0  0.56602  0.96908  0.47956  1.0000
  H   H92       1.0  0.93773  0.95853  0.46811  1.0000
  H   H93       1.0  0.94426  0.90000  0.37603  1.0000
  H   H94       1.0  0.57259  0.91110  0.38629  1.0000
  C   C190      1.0  0.99560  0.64761  0.34028  1.0000
  C   C191      1.0  0.96374  0.67509  0.36146  1.0000
  C   C192      1.0  0.96581  0.71690  0.33897  1.0000
  C   C193      1.0  0.00063  0.73190  0.29326  1.0000
  C   C194      1.0  0.00933  0.77438  0.29992  1.0000
  C   C195      1.0  0.03086  0.78804  0.37652  1.0000
  C   C196      1.0  0.53280  0.83020  0.39489  1.0000
  H   H95       1.0  0.54638  0.83937  0.45308  1.0000
  H   H96       1.0  0.94029  0.66595  0.40184  1.0000
  N   N31       1.0  0.04772  0.75938  0.43720  1.0000
  N   N32       1.0  0.93516  0.74446  0.36791  1.0000
  O   O59       1.0  0.90096  0.73543  0.33550  1.0000
  O   O60       1.0  0.03084  0.76129  0.51233  1.0000
  O   O61       1.0  0.93225  0.74544  0.45141  1.0000
  O   O62       1.0  0.08549  0.76442  0.44679  1.0000
  O   O63       1.0  0.70061  0.06710  0.28819  1.0000
  O   O64       1.0  0.73844  0.46995  0.60995  1.0000
