data_image0
_chemical_formula_structural       C2H8C2H8C3H2NHC3H2NHC3H2NHC28H16CHCHCHC28H16CHCHCHC3HOHNHC3HOHNHC3HOHNH
_chemical_formula_sum              "C84 H72 N6 O3"
_cell_length_a       44.9543
_cell_length_b       44.9495
_cell_length_c       15.0022
_cell_angle_alpha    90
_cell_angle_beta     90
_cell_angle_gamma    120.001

_space_group_name_H-M_alt    "P 1"
_space_group_IT_number       1

loop_
  _space_group_symop_operation_xyz
  'x, y, z'

loop_
  _atom_site_type_symbol
  _atom_site_label
  _atom_site_symmetry_multiplicity
  _atom_site_fract_x
  _atom_site_fract_y
  _atom_site_fract_z
  _atom_site_occupancy
  C   C1        1.0  0.38740  0.81862  0.35093  1.0000
  C   C2        1.0  0.40936  0.85433  0.34292  1.0000
  H   H1        1.0  0.39870  0.86976  0.34474  1.0000
  H   H2        1.0  0.36153  0.80927  0.35749  1.0000
  H   H3        1.0  0.47088  0.60108  0.34479  1.0000
  H   H4        1.0  0.13004  0.52890  0.34475  1.0000
  H   H5        1.0  0.19052  0.55220  0.35745  1.0000
  H   H6        1.0  0.08959  0.57440  0.26241  1.0000
  H   H7        1.0  0.42540  0.51513  0.26239  1.0000
  H   H8        1.0  0.48464  0.91021  0.26238  1.0000
  C   C3        1.0  0.61395  0.18125  0.31723  1.0000
  C   C4        1.0  0.59210  0.14555  0.32623  1.0000
  H   H9        1.0  0.60289  0.13023  0.32667  1.0000
  H   H10       1.0  0.63989  0.19072  0.31221  1.0000
  H   H11       1.0  0.52720  0.39693  0.32665  1.0000
  H   H12       1.0  0.86961  0.47264  0.32667  1.0000
  H   H13       1.0  0.80912  0.44915  0.31221  1.0000
  H   H14       1.0  0.91427  0.42889  0.28730  1.0000
  H   H15       1.0  0.57091  0.48534  0.28731  1.0000
  H   H16       1.0  0.51448  0.08556  0.28729  1.0000
  C   C5        1.0  0.48612  0.52198  0.32865  1.0000
  C   C6        1.0  0.48193  0.49895  0.25927  1.0000
  C   C7        1.0  0.49450  0.47609  0.26877  1.0000
  H   H17       1.0  0.49126  0.45962  0.21773  1.0000
  H   H18       1.0  0.46979  0.49885  0.20152  1.0000
  N   N1        1.0  0.47407  0.54556  0.32213  1.0000
  H   H19       1.0  0.48403  0.56002  0.26541  1.0000
  C   C8        1.0  0.47780  0.96410  0.32861  1.0000
  C   C9        1.0  0.50083  0.98293  0.25923  1.0000
  C   C10       1.0  0.52370  0.01837  0.26873  1.0000
  H   H20       1.0  0.54017  0.03159  0.21771  1.0000
  H   H21       1.0  0.50093  0.97089  0.20149  1.0000
  N   N2        1.0  0.45422  0.92847  0.32210  1.0000
  H   H22       1.0  0.43977  0.92397  0.26537  1.0000
  C   C11       1.0  0.03571  0.51367  0.32864  1.0000
  C   C12       1.0  0.01689  0.51787  0.25926  1.0000
  C   C13       1.0  0.98145  0.50530  0.26876  1.0000
  H   H23       1.0  0.96823  0.50856  0.21774  1.0000
  H   H24       1.0  0.02892  0.53001  0.20152  1.0000
  N   N3        1.0  0.07134  0.52572  0.32211  1.0000
  H   H25       1.0  0.07583  0.51576  0.26538  1.0000
  C   C14       1.0  0.44526  0.86852  0.33272  1.0000
  C   C15       1.0  0.45845  0.84579  0.33236  1.0000
  C   C16       1.0  0.43657  0.81010  0.34048  1.0000
  C   C17       1.0  0.40066  0.79600  0.34871  1.0000
  C   C18       1.0  0.37851  0.76084  0.35615  1.0000
  C   C19       1.0  0.37847  0.73777  0.29894  1.0000
  C   C20       1.0  0.35595  0.70268  0.30471  1.0000
  C   C21       1.0  0.31998  0.68906  0.30403  1.0000
  C   C22       1.0  0.29711  0.65321  0.30460  1.0000
  C   C23       1.0  0.31073  0.63085  0.30397  1.0000
  C   C24       1.0  0.34657  0.64384  0.30461  1.0000
  C   C25       1.0  0.36892  0.67981  0.30406  1.0000
  C   C26       1.0  0.35914  0.62131  0.29884  1.0000
  C   C27       1.0  0.38216  0.62127  0.35606  1.0000
  C   C28       1.0  0.39517  0.59912  0.34863  1.0000
  C   C29       1.0  0.43105  0.61238  0.35087  1.0000
  C   C30       1.0  0.37336  0.56321  0.34039  1.0000
  C   C31       1.0  0.38717  0.54133  0.33230  1.0000
  C   C32       1.0  0.42308  0.55452  0.33270  1.0000
  C   C33       1.0  0.44479  0.59042  0.34291  1.0000
  C   C34       1.0  0.26202  0.64063  0.29883  1.0000
  C   C35       1.0  0.23896  0.61762  0.35604  1.0000
  C   C36       1.0  0.20380  0.60461  0.34861  1.0000
  C   C37       1.0  0.18971  0.62642  0.34040  1.0000
  C   C38       1.0  0.18118  0.56872  0.35085  1.0000
  C   C39       1.0  0.14547  0.55499  0.34289  1.0000
  C   C40       1.0  0.13129  0.57670  0.33268  1.0000
  C   C41       1.0  0.15402  0.61262  0.33231  1.0000
  H   H26       1.0  0.48430  0.85514  0.32603  1.0000
  H   H27       1.0  0.44712  0.79451  0.34024  1.0000
  H   H28       1.0  0.39497  0.68946  0.30163  1.0000
  H   H29       1.0  0.31033  0.70546  0.30163  1.0000
  H   H30       1.0  0.29433  0.60481  0.30153  1.0000
  H   H31       1.0  0.20530  0.65256  0.34015  1.0000
  H   H32       1.0  0.44757  0.63825  0.35750  1.0000
  H   H33       1.0  0.37067  0.51547  0.32595  1.0000
  H   H34       1.0  0.34722  0.55266  0.34012  1.0000
  H   H35       1.0  0.14467  0.62913  0.32598  1.0000
  H   H36       1.0  0.39141  0.63865  0.40473  1.0000
  H   H37       1.0  0.35010  0.60413  0.24969  1.0000
  H   H38       1.0  0.36111  0.75271  0.40477  1.0000
  H   H39       1.0  0.39567  0.74591  0.24982  1.0000
  H   H40       1.0  0.24709  0.60835  0.40469  1.0000
  H   H41       1.0  0.25389  0.64970  0.24970  1.0000
  C   C42       1.0  0.09374  0.56372  0.32365  1.0000
  H   H42       1.0  0.08616  0.57392  0.38006  1.0000
  C   C43       1.0  0.43607  0.52995  0.32364  1.0000
  H   H43       1.0  0.42587  0.51217  0.38004  1.0000
  C   C44       1.0  0.46983  0.90607  0.32364  1.0000
  H   H44       1.0  0.48761  0.91366  0.38002  1.0000
  C   C45       1.0  0.55612  0.13124  0.33453  1.0000
  C   C46       1.0  0.54273  0.15378  0.33167  1.0000
  C   C47       1.0  0.56450  0.18945  0.32266  1.0000
  C   C48       1.0  0.60048  0.20370  0.31657  1.0000
  C   C49       1.0  0.62247  0.23888  0.30875  1.0000
  C   C50       1.0  0.62199  0.26195  0.36498  1.0000
  C   C51       1.0  0.64419  0.29711  0.35891  1.0000
  C   C52       1.0  0.68022  0.31115  0.35947  1.0000
  C   C53       1.0  0.70274  0.34708  0.35887  1.0000
  C   C54       1.0  0.68870  0.36906  0.35948  1.0000
  C   C55       1.0  0.65278  0.35567  0.35891  1.0000
  C   C56       1.0  0.63079  0.31963  0.35953  1.0000
  C   C57       1.0  0.63982  0.37787  0.36493  1.0000
  C   C58       1.0  0.61629  0.37740  0.30866  1.0000
  C   C59       1.0  0.60310  0.39937  0.31649  1.0000
  C   C60       1.0  0.56717  0.38588  0.31716  1.0000
  C   C61       1.0  0.62482  0.43536  0.32261  1.0000
  C   C62       1.0  0.61091  0.45712  0.33164  1.0000
  C   C63       1.0  0.57497  0.44371  0.33450  1.0000
  C   C64       1.0  0.55332  0.40773  0.32620  1.0000
  C   C65       1.0  0.73790  0.36003  0.36495  1.0000
  C   C66       1.0  0.76097  0.38358  0.30874  1.0000
  C   C67       1.0  0.79614  0.39676  0.31655  1.0000
  C   C68       1.0  0.81039  0.37502  0.32264  1.0000
  C   C69       1.0  0.81859  0.43269  0.31721  1.0000
  C   C70       1.0  0.85428  0.44652  0.32623  1.0000
  C   C71       1.0  0.86859  0.42486  0.33452  1.0000
  C   C72       1.0  0.84605  0.38892  0.33166  1.0000
  H   H45       1.0  0.51681  0.14432  0.33662  1.0000
  H   H46       1.0  0.55381  0.20491  0.32087  1.0000
  H   H47       1.0  0.60471  0.30968  0.36208  1.0000
  H   H48       1.0  0.69017  0.29501  0.36209  1.0000
  H   H49       1.0  0.70484  0.39515  0.36205  1.0000
  H   H50       1.0  0.79492  0.34887  0.32083  1.0000
  H   H51       1.0  0.55072  0.35995  0.31215  1.0000
  H   H52       1.0  0.62735  0.48304  0.33658  1.0000
  H   H53       1.0  0.65096  0.44606  0.32080  1.0000
  H   H54       1.0  0.85551  0.37246  0.33658  1.0000
  H   H55       1.0  0.60682  0.35979  0.26055  1.0000
  H   H56       1.0  0.64906  0.39531  0.41348  1.0000
  H   H57       1.0  0.64006  0.24701  0.26061  1.0000
  H   H58       1.0  0.60456  0.25375  0.41352  1.0000
  H   H59       1.0  0.75285  0.39305  0.26059  1.0000
  H   H60       1.0  0.74609  0.35078  0.41348  1.0000
  C   C73       1.0  0.90608  0.43788  0.34507  1.0000
  H   H61       1.0  0.90965  0.42595  0.40461  1.0000
  C   C74       1.0  0.56193  0.46817  0.34507  1.0000
  H   H62       1.0  0.57385  0.48365  0.40463  1.0000
  C   C75       1.0  0.53165  0.09374  0.34506  1.0000
  H   H63       1.0  0.51617  0.09018  0.40461  1.0000
  C   C76       1.0  0.51178  0.47602  0.34717  1.0000
  C   C77       1.0  0.51616  0.49916  0.41687  1.0000
  C   C78       1.0  0.50317  0.52180  0.40727  1.0000
  H   H64       1.0  0.50604  0.53813  0.45832  1.0000
  O   O1        1.0  0.53107  0.49833  0.49508  1.0000
  H   H65       1.0  0.55295  0.52013  0.49941  1.0000
  N   N4        1.0  0.52399  0.45251  0.35193  1.0000
  H   H66       1.0  0.51506  0.43830  0.40939  1.0000
  C   C79       1.0  0.52377  0.03571  0.34713  1.0000
  C   C80       1.0  0.50063  0.01697  0.41683  1.0000
  C   C81       1.0  0.47798  0.98134  0.40723  1.0000
  H   H67       1.0  0.46166  0.96788  0.45829  1.0000
  O   O2        1.0  0.50147  0.03270  0.49506  1.0000
  H   H68       1.0  0.47968  0.03280  0.49939  1.0000
  N   N5        1.0  0.54730  0.07145  0.35191  1.0000
  H   H69       1.0  0.56149  0.07670  0.40937  1.0000
  C   C82       1.0  0.96411  0.48802  0.34716  1.0000
  C   C83       1.0  0.98285  0.48363  0.41684  1.0000
  C   C84       1.0  0.01848  0.49661  0.40725  1.0000
  H   H70       1.0  0.03193  0.49373  0.45830  1.0000
  O   O3        1.0  0.96711  0.46872  0.49507  1.0000
  H   H71       1.0  0.96702  0.44683  0.49938  1.0000
  N   N6        1.0  0.92838  0.47582  0.35193  1.0000
  H   H72       1.0  0.92312  0.48476  0.40940  1.0000
