data_image0
_chemical_formula_structural       C16H16C3HCH3NC3HCH3NC3NC3NC5NC5NC36H26C4H4CN3CN3
_chemical_formula_sum              "C82 H54 N12"
_cell_length_a       34.15
_cell_length_b       34.1498
_cell_length_c       14.6053
_cell_angle_alpha    90
_cell_angle_beta     90
_cell_angle_gamma    89.831

_space_group_name_H-M_alt    "P 1"
_space_group_IT_number       1

loop_
  _space_group_symop_operation_xyz
  'x, y, z'

loop_
  _atom_site_type_symbol
  _atom_site_label
  _atom_site_symmetry_multiplicity
  _atom_site_fract_x
  _atom_site_fract_y
  _atom_site_fract_z
  _atom_site_occupancy
  C   C1        1.0  0.01034  0.22237  0.30353  1.0000
  C   C2        1.0  0.00941  0.18110  0.30035  1.0000
  C   C3        1.0  0.99199  0.30871  0.33729  1.0000
  C   C4        1.0  0.99288  0.34994  0.34361  1.0000
  C   C5        1.0  0.22051  0.01491  0.30527  1.0000
  C   C6        1.0  0.17924  0.01611  0.30182  1.0000
  C   C7        1.0  0.34788  0.03219  0.34615  1.0000
  C   C8        1.0  0.30665  0.03308  0.33968  1.0000
  C   C9        1.0  0.01214  0.84647  0.30170  1.0000
  C   C10       1.0  0.01154  0.80520  0.30528  1.0000
  C   C11       1.0  0.03073  0.67780  0.34227  1.0000
  C   C12       1.0  0.03123  0.71903  0.33599  1.0000
  C   C13       1.0  0.84439  0.01128  0.30103  1.0000
  C   C14       1.0  0.80311  0.01214  0.30450  1.0000
  C   C15       1.0  0.71715  0.99313  0.33905  1.0000
  C   C16       1.0  0.67591  0.99361  0.34561  1.0000
  H   H1        1.0  0.66022  0.97389  0.30780  1.0000
  H   H2        1.0  0.72990  0.97283  0.29694  1.0000
  H   H3        1.0  0.78801  0.00976  0.24431  1.0000
  H   H4        1.0  0.85797  0.00777  0.23912  1.0000
  H   H5        1.0  0.01364  0.86006  0.23936  1.0000
  H   H6        1.0  0.01207  0.79010  0.24482  1.0000
  H   H7        1.0  0.16568  0.01969  0.23989  1.0000
  H   H8        1.0  0.23563  0.01718  0.24507  1.0000
  H   H9        1.0  0.29409  0.05352  0.29765  1.0000
  H   H10       1.0  0.36375  0.05173  0.30822  1.0000
  H   H11       1.0  0.00620  0.16745  0.23843  1.0000
  H   H12       1.0  0.00828  0.23742  0.24317  1.0000
  H   H13       1.0  0.97338  0.36590  0.30556  1.0000
  H   H14       1.0  0.97162  0.29622  0.29515  1.0000
  H   H15       1.0  0.05014  0.73163  0.29045  1.0000
  H   H16       1.0  0.04899  0.66197  0.30070  1.0000
  C   C17       1.0  0.01318  0.47281  0.34942  1.0000
  C   C18       1.0  0.01266  0.49308  0.26540  1.0000
  C   C19       1.0  0.01241  0.53456  0.26370  1.0000
  H   H17       1.0  0.01274  0.47752  0.20547  1.0000
  C   C20       1.0  0.01216  0.55600  0.17522  1.0000
  H   H18       1.0  0.01231  0.53629  0.11637  1.0000
  H   H19       1.0  0.03800  0.57465  0.17068  1.0000
  H   H20       1.0  0.98599  0.57433  0.17082  1.0000
  N   N1        1.0  0.01354  0.43375  0.34971  1.0000
  C   C21       1.0  0.55281  0.01298  0.35122  1.0000
  C   C22       1.0  0.53269  0.01224  0.26703  1.0000
  C   C23       1.0  0.49122  0.01190  0.26495  1.0000
  H   H21       1.0  0.54834  0.01222  0.20724  1.0000
  C   C24       1.0  0.46993  0.01140  0.17627  1.0000
  H   H22       1.0  0.48973  0.01144  0.11761  1.0000
  H   H23       1.0  0.45109  0.03719  0.17122  1.0000
  H   H24       1.0  0.45181  0.98517  0.17206  1.0000
  N   N2        1.0  0.59186  0.01355  0.35178  1.0000
  C   C25       1.0  0.91105  0.08788  0.37873  1.0000
  C   C26       1.0  0.93993  0.11613  0.37890  1.0000
  C   C27       1.0  0.97634  0.09735  0.37795  1.0000
  N   N3        1.0  0.96808  0.05846  0.37736  1.0000
  C   C28       1.0  0.92902  0.05105  0.37828  1.0000
  C   C29       1.0  0.90875  0.01461  0.37885  1.0000
  C   C30       1.0  0.92735  0.97728  0.37909  1.0000
  N   N4        1.0  0.96617  0.96918  0.37835  1.0000
  C   C31       1.0  0.97346  0.93020  0.37977  1.0000
  C   C32       1.0  0.93683  0.91211  0.38131  1.0000
  C   C33       1.0  0.90849  0.94105  0.38111  1.0000
  C   C34       1.0  0.01037  0.91081  0.37986  1.0000
  C   C35       1.0  0.04725  0.93025  0.37929  1.0000
  N   N5        1.0  0.05551  0.96913  0.37887  1.0000
  C   C36       1.0  0.09457  0.97652  0.37933  1.0000
  C   C37       1.0  0.11254  0.93969  0.37945  1.0000
  C   C38       1.0  0.08366  0.91145  0.37966  1.0000
  C   C39       1.0  0.11485  0.01296  0.37958  1.0000
  C   C40       1.0  0.09624  0.05028  0.37914  1.0000
  N   N6        1.0  0.05742  0.05840  0.37821  1.0000
  C   C41       1.0  0.05014  0.09738  0.37876  1.0000
  C   C42       1.0  0.08679  0.11545  0.37978  1.0000
  C   C43       1.0  0.11512  0.08651  0.38035  1.0000
  C   C44       1.0  0.01323  0.11680  0.37850  1.0000
  C   C45       1.0  0.01335  0.15871  0.38119  1.0000
  C   C46       1.0  0.01800  0.17865  0.46515  1.0000
  C   C47       1.0  0.01903  0.21986  0.46796  1.0000
  C   C48       1.0  0.01548  0.24275  0.38728  1.0000
  C   C49       1.0  0.01718  0.28483  0.39079  1.0000
  C   C50       1.0  0.01914  0.36901  0.40374  1.0000
  C   C51       1.0  0.04469  0.34535  0.45635  1.0000
  C   C52       1.0  0.04387  0.30422  0.44957  1.0000
  C   C53       1.0  0.15675  0.01208  0.38244  1.0000
  C   C54       1.0  0.17658  0.00702  0.46645  1.0000
  C   C55       1.0  0.21779  0.00576  0.46953  1.0000
  C   C56       1.0  0.24079  0.00950  0.38910  1.0000
  C   C57       1.0  0.28288  0.00782  0.39292  1.0000
  C   C58       1.0  0.30240  0.98111  0.45170  1.0000
  C   C59       1.0  0.34353  0.98029  0.45865  1.0000
  C   C60       1.0  0.36707  0.00588  0.40622  1.0000
  C   C61       1.0  0.01029  0.86892  0.38283  1.0000
  C   C62       1.0  0.00890  0.78487  0.38976  1.0000
  C   C63       1.0  0.00737  0.80785  0.47066  1.0000
  C   C64       1.0  0.00803  0.84907  0.46745  1.0000
  C   C65       1.0  0.00766  0.74277  0.39375  1.0000
  C   C66       1.0  0.98305  0.72320  0.45697  1.0000
  C   C67       1.0  0.98263  0.68206  0.46369  1.0000
  C   C68       1.0  0.00654  0.65854  0.40668  1.0000
  C   C69       1.0  0.86685  0.01545  0.38165  1.0000
  C   C70       1.0  0.84699  0.02031  0.46569  1.0000
  C   C71       1.0  0.80576  0.02125  0.46878  1.0000
  C   C72       1.0  0.78279  0.01735  0.38835  1.0000
  C   C73       1.0  0.74069  0.01862  0.39222  1.0000
  C   C74       1.0  0.65650  0.01970  0.40579  1.0000
  C   C75       1.0  0.67981  0.04553  0.45816  1.0000
  C   C76       1.0  0.72094  0.04512  0.45108  1.0000
  H   H25       1.0  0.66701  0.06495  0.50250  1.0000
  H   H26       1.0  0.73638  0.06472  0.48970  1.0000
  H   H27       1.0  0.79265  0.02416  0.53137  1.0000
  H   H28       1.0  0.86244  0.02313  0.52536  1.0000
  H   H29       1.0  0.88171  0.09381  0.37951  1.0000
  H   H30       1.0  0.93465  0.14559  0.37991  1.0000
  H   H31       1.0  0.98774  0.03838  0.37693  1.0000
  H   H32       1.0  0.03586  0.98921  0.37913  1.0000
  H   H33       1.0  0.87902  0.93601  0.38255  1.0000
  H   H34       1.0  0.93117  0.88275  0.38273  1.0000
  H   H35       1.0  0.00683  0.86453  0.52742  1.0000
  H   H36       1.0  0.00634  0.79474  0.53356  1.0000
  H   H37       1.0  0.08893  0.88198  0.38011  1.0000
  H   H38       1.0  0.14188  0.93375  0.37956  1.0000
  H   H39       1.0  0.09248  0.14481  0.38037  1.0000
  H   H40       1.0  0.14460  0.09155  0.38155  1.0000
  H   H41       1.0  0.16111  0.00425  0.52610  1.0000
  H   H42       1.0  0.23089  0.00269  0.53211  1.0000
  H   H43       1.0  0.35617  0.96072  0.50290  1.0000
  H   H44       1.0  0.28678  0.96166  0.49034  1.0000
  H   H45       1.0  0.06327  0.28851  0.48838  1.0000
  H   H46       1.0  0.06421  0.35789  0.50069  1.0000
  H   H47       1.0  0.02194  0.23304  0.53046  1.0000
  H   H48       1.0  0.02079  0.16326  0.52493  1.0000
  H   H49       1.0  0.96480  0.73877  0.49902  1.0000
  H   H50       1.0  0.96457  0.66941  0.51113  1.0000
  C   C77       1.0  0.01915  0.40947  0.41594  1.0000
  C   C78       1.0  0.40755  0.00577  0.41816  1.0000
  C   C79       1.0  0.00677  0.61800  0.41803  1.0000
  C   C80       1.0  0.61603  0.01937  0.41804  1.0000
  H   H51       1.0  0.02487  0.41989  0.47820  1.0000
  H   H52       1.0  0.60552  0.02518  0.48019  1.0000
  H   H53       1.0  0.00162  0.60727  0.48025  1.0000
  H   H54       1.0  0.41814  0.99973  0.48010  1.0000
  C   C81       1.0  0.01220  0.55489  0.34845  1.0000
  N   N7        1.0  0.01260  0.53309  0.42660  1.0000
  N   N8        1.0  0.01308  0.49474  0.42719  1.0000
  N   N9        1.0  0.01177  0.59402  0.35098  1.0000
  C   C82       1.0  0.47075  0.01181  0.34952  1.0000
  N   N10       1.0  0.49241  0.01244  0.42787  1.0000
  N   N11       1.0  0.53075  0.01301  0.42881  1.0000
  N   N12       1.0  0.43162  0.01150  0.35167  1.0000
