data_image0
_chemical_formula_structural       C3HC2HC2HCNHCNCNHC2H2C2NH4C2NHC3H2C3HC3H3C3HC3H3CNH2CNC4H2NH2C4HNHCNC4H2NH2CNC4H2NH2CNC4H2NH2C3NH2C3NC3NH4C3NC3NH4C4HNHC4HCNHNH2CNH2C4HCNHNH2C4HCNHNH2C4HCNHNH2
_chemical_formula_sum              "C96 H72 N30"
_cell_length_a       31.7739
_cell_length_b       31.7739
_cell_length_c       14.7675
_cell_angle_alpha    90
_cell_angle_beta     90
_cell_angle_gamma    120

_space_group_name_H-M_alt    "P 1"
_space_group_IT_number       1

loop_
  _space_group_symop_operation_xyz
  'x, y, z'

loop_
  _atom_site_type_symbol
  _atom_site_label
  _atom_site_symmetry_multiplicity
  _atom_site_fract_x
  _atom_site_fract_y
  _atom_site_fract_z
  _atom_site_occupancy
  C   C1        1.0  0.03874  0.52136  0.34908  1.0000
  C   C2        1.0  0.11847  0.59976  0.35728  1.0000
  C   C3        1.0  0.06689  0.57300  0.35841  1.0000
  H   H1        1.0  0.04989  0.59260  0.36872  1.0000
  C   C4        1.0  0.06687  0.49784  0.33968  1.0000
  C   C5        1.0  0.11845  0.52266  0.34072  1.0000
  H   H2        1.0  0.04986  0.46124  0.32947  1.0000
  C   C6        1.0  0.17347  0.50406  0.25351  1.0000
  C   C7        1.0  0.14401  0.49620  0.33061  1.0000
  H   H3        1.0  0.16771  0.52011  0.19833  1.0000
  C   C8        1.0  0.15504  0.68162  0.29020  1.0000
  N   N1        1.0  0.19554  0.72631  0.28925  1.0000
  H   H4        1.0  0.13661  0.66798  0.23084  1.0000
  C   C9        1.0  0.14485  0.57440  0.34891  1.0000
  N   N2        1.0  0.19476  0.59935  0.34875  1.0000
  C   C10       1.0  0.15504  0.47742  0.40779  1.0000
  N   N3        1.0  0.19558  0.47329  0.40886  1.0000
  H   H5        1.0  0.13685  0.47293  0.46733  1.0000
  C   C11       1.0  0.14407  0.65181  0.36728  1.0000
  C   C12       1.0  0.17355  0.67322  0.44441  1.0000
  H   H6        1.0  0.16770  0.65136  0.49957  1.0000
  H   H7        1.0  0.21383  0.63440  0.34460  1.0000
  C   C13       1.0  0.22806  0.48512  0.33976  1.0000
  C   C14       1.0  0.21662  0.50096  0.25712  1.0000
  N   N4        1.0  0.24665  0.51813  0.18383  1.0000
  H   H8        1.0  0.23791  0.53009  0.13041  1.0000
  H   H9        1.0  0.26020  0.74014  0.18518  1.0000
  H   H10       1.0  0.21384  0.58338  0.35273  1.0000
  H   H11       1.0  0.26024  0.52422  0.51281  1.0000
  C   C15       1.0  0.22808  0.74684  0.35833  1.0000
  C   C16       1.0  0.21670  0.71947  0.44087  1.0000
  N   N5        1.0  0.24675  0.73229  0.51412  1.0000
  H   H12       1.0  0.23809  0.71143  0.56730  1.0000
  C   C17       1.0  0.98490  0.49445  0.34911  1.0000
  C   C18       1.0  0.95677  0.44280  0.35835  1.0000
  C   C19       1.0  0.90519  0.41603  0.35726  1.0000
  H   H13       1.0  0.97377  0.42320  0.36848  1.0000
  H   H14       1.0  0.80981  0.38139  0.34480  1.0000
  C   C20       1.0  0.52521  0.49436  0.34912  1.0000
  C   C21       1.0  0.57684  0.51786  0.35861  1.0000
  C   C22       1.0  0.60360  0.49304  0.35749  1.0000
  H   H15       1.0  0.59642  0.55445  0.36896  1.0000
  C   C23       1.0  0.49830  0.52127  0.34912  1.0000
  C   C24       1.0  0.41990  0.52259  0.35753  1.0000
  C   C25       1.0  0.44666  0.49777  0.35863  1.0000
  H   H16       1.0  0.42708  0.46117  0.36897  1.0000
  H   H17       1.0  0.38525  0.58332  0.34528  1.0000
  H   H18       1.0  0.63825  0.43231  0.34520  1.0000
  C   C26       1.0  0.52520  0.03480  0.34908  1.0000
  C   C27       1.0  0.50169  0.06293  0.35849  1.0000
  C   C28       1.0  0.52650  0.11451  0.35739  1.0000
  H   H19       1.0  0.46509  0.04591  0.36884  1.0000
  C   C29       1.0  0.49830  0.98097  0.34909  1.0000
  C   C30       1.0  0.49703  0.90128  0.35732  1.0000
  C   C31       1.0  0.52182  0.95285  0.35847  1.0000
  H   H20       1.0  0.55843  0.96988  0.36873  1.0000
  H   H21       1.0  0.43635  0.80591  0.34467  1.0000
  H   H22       1.0  0.58721  0.20989  0.34502  1.0000
  C   C32       1.0  0.33813  0.47737  0.29053  1.0000
  N   N6        1.0  0.29347  0.47326  0.28942  1.0000
  H   H23       1.0  0.35183  0.47282  0.23104  1.0000
  H   H24       1.0  0.27941  0.52364  0.18471  1.0000
  C   C33       1.0  0.54236  0.86470  0.29026  1.0000
  N   N7        1.0  0.54647  0.82414  0.28928  1.0000
  C   C34       1.0  0.53455  0.74688  0.33976  1.0000
  C   C35       1.0  0.51866  0.71958  0.25715  1.0000
  C   C36       1.0  0.51542  0.67326  0.25371  1.0000
  C   C37       1.0  0.52343  0.65170  0.33066  1.0000
  H   H25       1.0  0.49956  0.65151  0.19836  1.0000
  H   H26       1.0  0.54692  0.88290  0.23072  1.0000
  N   N8        1.0  0.50155  0.73244  0.18378  1.0000
  H   H27       1.0  0.49613  0.75975  0.18455  1.0000
  H   H28       1.0  0.48953  0.71170  0.13041  1.0000
  C   C38       1.0  0.27283  0.79160  0.33981  1.0000
  C   C39       1.0  0.30014  0.80303  0.25719  1.0000
  C   C40       1.0  0.34638  0.84621  0.25358  1.0000
  C   C41       1.0  0.36787  0.87563  0.33071  1.0000
  H   H29       1.0  0.36810  0.85204  0.19822  1.0000
  N   N9        1.0  0.28720  0.77304  0.18383  1.0000
  H   H30       1.0  0.30807  0.78167  0.13068  1.0000
  C   C42       1.0  0.68546  0.53829  0.29058  1.0000
  N   N10       1.0  0.73015  0.54245  0.28958  1.0000
  C   C43       1.0  0.79554  0.53062  0.34014  1.0000
  C   C44       1.0  0.80697  0.51472  0.25756  1.0000
  C   C45       1.0  0.85015  0.51165  0.25397  1.0000
  C   C46       1.0  0.87960  0.51961  0.33115  1.0000
  H   H31       1.0  0.85594  0.49561  0.19882  1.0000
  H   H32       1.0  0.67180  0.54282  0.23103  1.0000
  N   N11       1.0  0.77693  0.49745  0.18432  1.0000
  H   H33       1.0  0.74415  0.49189  0.18522  1.0000
  H   H34       1.0  0.78566  0.48545  0.13094  1.0000
  C   C47       1.0  0.48120  0.15099  0.29032  1.0000
  N   N12       1.0  0.47710  0.19155  0.28925  1.0000
  C   C48       1.0  0.48899  0.26882  0.33964  1.0000
  C   C49       1.0  0.50493  0.29614  0.25707  1.0000
  C   C50       1.0  0.50804  0.34240  0.25347  1.0000
  C   C51       1.0  0.50008  0.36394  0.33053  1.0000
  H   H35       1.0  0.52415  0.36424  0.19836  1.0000
  H   H36       1.0  0.47666  0.13275  0.23084  1.0000
  N   N13       1.0  0.52219  0.28332  0.18386  1.0000
  H   H37       1.0  0.52769  0.25606  0.18477  1.0000
  H   H38       1.0  0.53422  0.30406  0.13048  1.0000
  C   C52       1.0  0.86863  0.33414  0.29007  1.0000
  N   N14       1.0  0.82807  0.28947  0.28913  1.0000
  C   C53       1.0  0.75080  0.22415  0.33967  1.0000
  C   C54       1.0  0.72351  0.21273  0.25706  1.0000
  C   C55       1.0  0.67718  0.16966  0.25363  1.0000
  C   C56       1.0  0.65561  0.14010  0.33060  1.0000
  H   H39       1.0  0.65544  0.16376  0.19828  1.0000
  H   H40       1.0  0.88682  0.34778  0.23051  1.0000
  N   N15       1.0  0.73637  0.24269  0.18367  1.0000
  H   H41       1.0  0.76368  0.27542  0.18442  1.0000
  H   H42       1.0  0.71563  0.23395  0.13030  1.0000
  C   C57       1.0  0.87880  0.44139  0.34908  1.0000
  C   C58       1.0  0.90518  0.49313  0.34094  1.0000
  C   C59       1.0  0.95677  0.51796  0.33988  1.0000
  N   N16       1.0  0.82889  0.41643  0.34904  1.0000
  H   H43       1.0  0.80980  0.43238  0.35321  1.0000
  H   H44       1.0  0.97377  0.55457  0.32978  1.0000
  C   C60       1.0  0.57825  0.44130  0.34913  1.0000
  C   C61       1.0  0.52652  0.41596  0.34074  1.0000
  C   C62       1.0  0.50170  0.44272  0.33963  1.0000
  N   N17       1.0  0.60320  0.41634  0.34915  1.0000
  C   C63       1.0  0.52180  0.57291  0.33964  1.0000
  C   C64       1.0  0.49699  0.59968  0.34080  1.0000
  C   C65       1.0  0.44525  0.57433  0.34920  1.0000
  N   N18       1.0  0.42030  0.59928  0.34926  1.0000
  H   H45       1.0  0.43627  0.63433  0.35327  1.0000
  H   H46       1.0  0.58723  0.38129  0.35312  1.0000
  H   H47       1.0  0.46511  0.42315  0.32924  1.0000
  H   H48       1.0  0.55840  0.59248  0.32928  1.0000
  C   C66       1.0  0.57824  0.14090  0.34906  1.0000
  C   C67       1.0  0.60359  0.11452  0.34073  1.0000
  C   C68       1.0  0.57684  0.06294  0.33960  1.0000
  N   N19       1.0  0.60318  0.19081  0.34904  1.0000
  C   C69       1.0  0.44666  0.95283  0.33973  1.0000
  C   C70       1.0  0.41992  0.90124  0.34078  1.0000
  C   C71       1.0  0.44529  0.87487  0.34898  1.0000
  N   N20       1.0  0.42036  0.82496  0.34885  1.0000
  H   H49       1.0  0.38532  0.80586  0.35285  1.0000
  H   H50       1.0  0.63823  0.20990  0.35306  1.0000
  H   H51       1.0  0.59643  0.04593  0.32932  1.0000
  H   H52       1.0  0.42706  0.96983  0.32946  1.0000
  C   C72       1.0  0.36787  0.49616  0.36776  1.0000
  C   C73       1.0  0.27283  0.48517  0.35843  1.0000
  C   C74       1.0  0.30012  0.50109  0.44105  1.0000
  C   C75       1.0  0.34633  0.50409  0.44482  1.0000
  H   H53       1.0  0.36809  0.52015  0.50004  1.0000
  N   N21       1.0  0.28719  0.51824  0.51429  1.0000
  H   H54       1.0  0.30805  0.53050  0.56747  1.0000
  C   C76       1.0  0.52351  0.87573  0.36730  1.0000
  C   C77       1.0  0.53457  0.79164  0.35837  1.0000
  C   C78       1.0  0.51870  0.80309  0.44097  1.0000
  C   C79       1.0  0.51545  0.84617  0.44431  1.0000
  H   H55       1.0  0.49958  0.85203  0.49968  1.0000
  C   C80       1.0  0.54208  0.68149  0.40786  1.0000
  N   N22       1.0  0.54638  0.72623  0.40888  1.0000
  H   H56       1.0  0.54692  0.66791  0.46724  1.0000
  N   N23       1.0  0.50158  0.77314  0.51436  1.0000
  H   H57       1.0  0.48958  0.78189  0.56772  1.0000
  H   H58       1.0  0.49617  0.74041  0.51366  1.0000
  C   C81       1.0  0.33818  0.86453  0.40800  1.0000
  N   N24       1.0  0.29345  0.82406  0.40898  1.0000
  H   H59       1.0  0.35179  0.88294  0.46738  1.0000
  H   H60       1.0  0.27959  0.75940  0.51303  1.0000
  C   C82       1.0  0.65562  0.51948  0.36769  1.0000
  C   C83       1.0  0.75078  0.53061  0.35870  1.0000
  C   C84       1.0  0.72346  0.51472  0.44128  1.0000
  C   C85       1.0  0.67716  0.51152  0.44474  1.0000
  H   H61       1.0  0.65534  0.49553  0.49994  1.0000
  C   C86       1.0  0.86855  0.53837  0.40826  1.0000
  N   N25       1.0  0.82804  0.54255  0.40923  1.0000
  H   H62       1.0  0.88694  0.54309  0.46764  1.0000
  N   N26       1.0  0.73629  0.49755  0.51462  1.0000
  H   H63       1.0  0.71555  0.48554  0.56798  1.0000
  H   H64       1.0  0.76359  0.49211  0.51384  1.0000
  C   C87       1.0  0.50005  0.14010  0.36752  1.0000
  C   C88       1.0  0.48903  0.22409  0.35828  1.0000
  C   C89       1.0  0.50499  0.21274  0.44088  1.0000
  C   C90       1.0  0.50801  0.16954  0.44464  1.0000
  H   H65       1.0  0.52409  0.16384  0.49984  1.0000
  C   C91       1.0  0.48122  0.33410  0.40764  1.0000
  N   N27       1.0  0.47709  0.28943  0.40870  1.0000
  H   H66       1.0  0.47665  0.34776  0.46715  1.0000
  N   N28       1.0  0.52216  0.24284  0.51409  1.0000
  H   H67       1.0  0.53445  0.23426  0.56725  1.0000
  H   H68       1.0  0.52810  0.27575  0.51260  1.0000
  C   C92       1.0  0.87962  0.36399  0.36709  1.0000
  C   C93       1.0  0.79558  0.26889  0.35826  1.0000
  C   C94       1.0  0.80704  0.29620  0.44086  1.0000
  C   C95       1.0  0.85013  0.34253  0.44420  1.0000
  H   H69       1.0  0.85601  0.36427  0.49956  1.0000
  C   C96       1.0  0.68540  0.15125  0.40781  1.0000
  N   N29       1.0  0.73015  0.19169  0.40880  1.0000
  H   H70       1.0  0.67182  0.13284  0.46719  1.0000
  N   N30       1.0  0.77710  0.28338  0.51428  1.0000
  H   H71       1.0  0.78587  0.30414  0.56763  1.0000
  H   H72       1.0  0.74438  0.25608  0.51359  1.0000
