data_image0
_chemical_formula_structural       NC12H6N4C12H6N4C12H6N4C12H6N3C4H3CH3CHC4H3CH3CHC4H3CH3CHC3H2CHC3H2CHC3H2CHC6H6C6H6C6H6C6H6C3H2CHC3H2CHC3H2CHC4H3CH3CHC4H3CH3CHC4H3CH3CH
_chemical_formula_sum              "N16 C132 H108"
_cell_length_a       50.0033
_cell_length_b       50.003
_cell_length_c       14.8914
_cell_angle_alpha    90
_cell_angle_beta     90
_cell_angle_gamma    120

_space_group_name_H-M_alt    "P 1"
_space_group_IT_number       1

loop_
  _space_group_symop_operation_xyz
  'x, y, z'

loop_
  _atom_site_type_symbol
  _atom_site_label
  _atom_site_symmetry_multiplicity
  _atom_site_fract_x
  _atom_site_fract_y
  _atom_site_fract_z
  _atom_site_occupancy
  N   N1        1.0  0.99877  0.00029  0.31804  1.0000
  C   C1        1.0  0.98262  0.01700  0.31757  1.0000
  C   C2        1.0  0.98205  0.96743  0.31757  1.0000
  C   C3        1.0  0.03163  0.01644  0.31757  1.0000
  C   C4        1.0  0.94837  0.90142  0.31667  1.0000
  C   C5        1.0  0.94680  0.91844  0.24319  1.0000
  C   C6        1.0  0.96362  0.95099  0.24322  1.0000
  C   C7        1.0  0.95028  0.05068  0.31662  1.0000
  C   C8        1.0  0.96889  0.05226  0.24317  1.0000
  C   C9        1.0  0.98462  0.03544  0.24321  1.0000
  C   C10       1.0  0.09764  0.04879  0.31663  1.0000
  C   C11       1.0  0.08061  0.03019  0.24317  1.0000
  C   C12       1.0  0.04807  0.01444  0.24322  1.0000
  H   H1        1.0  0.93349  0.90719  0.18849  1.0000
  H   H2        1.0  0.96222  0.96273  0.18883  1.0000
  H   H3        1.0  0.99777  0.03684  0.18884  1.0000
  H   H4        1.0  0.97095  0.06558  0.18847  1.0000
  H   H5        1.0  0.09187  0.02813  0.18848  1.0000
  H   H6        1.0  0.03632  0.00130  0.18884  1.0000
  N   N2        1.0  0.12844  0.06260  0.31303  1.0000
  N   N3        1.0  0.93650  0.06770  0.31305  1.0000
  N   N4        1.0  0.93139  0.87061  0.31305  1.0000
  N   N5        1.0  0.42751  0.21569  0.33047  1.0000
  C   C13       1.0  0.44451  0.19998  0.33510  1.0000
  C   C14       1.0  0.44520  0.24840  0.33138  1.0000
  C   C15       1.0  0.39478  0.19976  0.32744  1.0000
  C   C16       1.0  0.49099  0.31198  0.34130  1.0000
  C   C17       1.0  0.48466  0.29578  0.25902  1.0000
  C   C18       1.0  0.46201  0.26435  0.25421  1.0000
  C   C19       1.0  0.48948  0.18087  0.33806  1.0000
  C   C20       1.0  0.47397  0.17987  0.25774  1.0000
  C   C21       1.0  0.45177  0.18937  0.25610  1.0000
  C   C22       1.0  0.32891  0.16840  0.32182  1.0000
  C   C23       1.0  0.34668  0.18748  0.25006  1.0000
  C   C24       1.0  0.37919  0.20266  0.25229  1.0000
  H   H7        1.0  0.49774  0.30622  0.20333  1.0000
  H   H8        1.0  0.45920  0.25262  0.19546  1.0000
  H   H9        1.0  0.44242  0.19044  0.19605  1.0000
  H   H10       1.0  0.47988  0.17369  0.19863  1.0000
  H   H11       1.0  0.33600  0.19029  0.19515  1.0000
  H   H12       1.0  0.39152  0.21622  0.19923  1.0000
  N   N6        1.0  0.29822  0.15526  0.31745  1.0000
  N   N7        1.0  0.51230  0.17441  0.33253  1.0000
  N   N8        1.0  0.51480  0.34037  0.35205  1.0000
  N   N9        1.0  0.78334  0.21363  0.33030  1.0000
  C   C25       1.0  0.79902  0.24634  0.33499  1.0000
  C   C26       1.0  0.75063  0.19856  0.33139  1.0000
  C   C27       1.0  0.79929  0.19685  0.32730  1.0000
  C   C28       1.0  0.68705  0.18077  0.34131  1.0000
  C   C29       1.0  0.70323  0.19059  0.25899  1.0000
  C   C30       1.0  0.73468  0.19944  0.25422  1.0000
  C   C31       1.0  0.81809  0.31040  0.33803  1.0000
  C   C32       1.0  0.81911  0.29591  0.25769  1.0000
  C   C33       1.0  0.80960  0.26422  0.25600  1.0000
  C   C34       1.0  0.83069  0.16237  0.32170  1.0000
  C   C35       1.0  0.81158  0.16102  0.24998  1.0000
  C   C36       1.0  0.79639  0.17835  0.25219  1.0000
  H   H13       1.0  0.69282  0.19333  0.20339  1.0000
  H   H14       1.0  0.74641  0.20839  0.19550  1.0000
  H   H15       1.0  0.80860  0.25381  0.19597  1.0000
  H   H16       1.0  0.82532  0.30802  0.19862  1.0000
  H   H17       1.0  0.80877  0.14753  0.19507  1.0000
  H   H18       1.0  0.78282  0.17710  0.19913  1.0000
  N   N10       1.0  0.84383  0.14481  0.31736  1.0000
  N   N11       1.0  0.82458  0.33969  0.33258  1.0000
  N   N12       1.0  0.65866  0.17618  0.35210  1.0000
  N   N13       1.0  0.78542  0.57154  0.33031  1.0000
  C   C37       1.0  0.75271  0.55452  0.33504  1.0000
  C   C38       1.0  0.80048  0.55388  0.33132  1.0000
  C   C39       1.0  0.80221  0.60428  0.32733  1.0000
  C   C40       1.0  0.81832  0.50813  0.34127  1.0000
  C   C41       1.0  0.80850  0.51449  0.25894  1.0000
  C   C42       1.0  0.79961  0.53707  0.25417  1.0000
  C   C43       1.0  0.68864  0.50957  0.33796  1.0000
  C   C44       1.0  0.70314  0.52510  0.25765  1.0000
  C   C45       1.0  0.73486  0.54722  0.25599  1.0000
  C   C46       1.0  0.83671  0.67015  0.32177  1.0000
  C   C47       1.0  0.83803  0.65239  0.25000  1.0000
  C   C48       1.0  0.82070  0.61987  0.25221  1.0000
  H   H19       1.0  0.80579  0.50136  0.20332  1.0000
  H   H20       1.0  0.79072  0.53987  0.19538  1.0000
  H   H21       1.0  0.74527  0.55665  0.19598  1.0000
  H   H22       1.0  0.69107  0.51918  0.19852  1.0000
  H   H23       1.0  0.85151  0.66307  0.19509  1.0000
  H   H24       1.0  0.82193  0.60755  0.19911  1.0000
  N   N14       1.0  0.85425  0.70084  0.31742  1.0000
  N   N15       1.0  0.65935  0.48678  0.33243  1.0000
  N   N16       1.0  0.82284  0.48429  0.35208  1.0000
  C   C49       1.0  0.18091  0.09750  0.33886  1.0000
  C   C50       1.0  0.19736  0.10697  0.25564  1.0000
  C   C51       1.0  0.22976  0.11676  0.25333  1.0000
  C   C52       1.0  0.18121  0.10725  0.17107  1.0000
  H   H25       1.0  0.15742  0.10176  0.18073  1.0000
  H   H26       1.0  0.18085  0.09049  0.12351  1.0000
  H   H27       1.0  0.19324  0.13016  0.14075  1.0000
  C   C53       1.0  0.24642  0.12441  0.16505  1.0000
  H   H28       1.0  0.27005  0.12895  0.16899  1.0000
  H   H29       1.0  0.24723  0.14486  0.13625  1.0000
  H   H30       1.0  0.23447  0.10513  0.11859  1.0000
  C   C54       1.0  0.14966  0.08765  0.34940  1.0000
  H   H31       1.0  0.14391  0.10016  0.38830  1.0000
  C   C55       1.0  0.90163  0.08530  0.33883  1.0000
  C   C56       1.0  0.89211  0.09224  0.25562  1.0000
  C   C57       1.0  0.88232  0.11484  0.25327  1.0000
  C   C58       1.0  0.89182  0.07578  0.17108  1.0000
  H   H32       1.0  0.89733  0.05751  0.18076  1.0000
  H   H33       1.0  0.90856  0.09218  0.12346  1.0000
  H   H34       1.0  0.86890  0.06488  0.14081  1.0000
  C   C59       1.0  0.87464  0.12382  0.16498  1.0000
  H   H35       1.0  0.87009  0.14291  0.16889  1.0000
  H   H36       1.0  0.85419  0.10417  0.13623  1.0000
  H   H37       1.0  0.89392  0.13115  0.11850  1.0000
  C   C60       1.0  0.91146  0.06389  0.34942  1.0000
  H   H38       1.0  0.89892  0.04561  0.38822  1.0000
  C   C61       1.0  0.91380  0.81814  0.33889  1.0000
  C   C62       1.0  0.90683  0.80170  0.25566  1.0000
  C   C63       1.0  0.88421  0.76930  0.25333  1.0000
  C   C64       1.0  0.92327  0.81785  0.17111  1.0000
  H   H39       1.0  0.94157  0.84164  0.18078  1.0000
  H   H40       1.0  0.90688  0.81822  0.12353  1.0000
  H   H41       1.0  0.93415  0.80582  0.14078  1.0000
  C   C65       1.0  0.87521  0.75264  0.16505  1.0000
  H   H42       1.0  0.85611  0.72901  0.16897  1.0000
  H   H43       1.0  0.89485  0.75182  0.13626  1.0000
  H   H44       1.0  0.86789  0.76460  0.11859  1.0000
  C   C66       1.0  0.93521  0.84939  0.34944  1.0000
  H   H45       1.0  0.95345  0.85514  0.38841  1.0000
  C   C67       1.0  0.60857  0.16506  0.32276  1.0000
  C   C68       1.0  0.60058  0.18311  0.26838  1.0000
  C   C69       1.0  0.57510  0.18639  0.28913  1.0000
  H   H46       1.0  0.57091  0.20072  0.24969  1.0000
  H   H47       1.0  0.61388  0.19502  0.21416  1.0000
  C   C70       1.0  0.63534  0.16498  0.29865  1.0000
  H   H48       1.0  0.63707  0.15841  0.23688  1.0000
  C   C71       1.0  0.83396  0.44531  0.32280  1.0000
  C   C72       1.0  0.81591  0.41927  0.26846  1.0000
  C   C73       1.0  0.81262  0.39050  0.28926  1.0000
  H   H49       1.0  0.79833  0.37199  0.24976  1.0000
  H   H50       1.0  0.80404  0.42066  0.21414  1.0000
  C   C74       1.0  0.83403  0.47215  0.29867  1.0000
  H   H51       1.0  0.84072  0.48051  0.23700  1.0000
  C   C75       1.0  0.55373  0.39049  0.32265  1.0000
  C   C76       1.0  0.57976  0.39852  0.26820  1.0000
  C   C77       1.0  0.60852  0.42401  0.28896  1.0000
  H   H52       1.0  0.62703  0.42821  0.24948  1.0000
  H   H53       1.0  0.57838  0.38523  0.21396  1.0000
  C   C78       1.0  0.52691  0.36369  0.29859  1.0000
  H   H54       1.0  0.51854  0.36199  0.23692  1.0000
  C   C79       1.0  0.98338  0.95052  0.39170  1.0000
  C   C80       1.0  0.96680  0.91797  0.39128  1.0000
  C   C81       1.0  0.96438  0.01567  0.39167  1.0000
  C   C82       1.0  0.94842  0.03226  0.39126  1.0000
  C   C83       1.0  0.04853  0.03467  0.39169  1.0000
  C   C84       1.0  0.08108  0.05065  0.39127  1.0000
  H   H55       1.0  0.99636  0.96193  0.44667  1.0000
  H   H56       1.0  0.96790  0.90646  0.44663  1.0000
  H   H57       1.0  0.96280  0.00270  0.44666  1.0000
  H   H58       1.0  0.93579  0.03115  0.44659  1.0000
  H   H59       1.0  0.03713  0.03625  0.44667  1.0000
  H   H60       1.0  0.09260  0.06327  0.44661  1.0000
  C   C85       1.0  0.45088  0.26471  0.41300  1.0000
  C   C86       1.0  0.47373  0.29613  0.41799  1.0000
  C   C87       1.0  0.45895  0.19975  0.41630  1.0000
  C   C88       1.0  0.48105  0.19020  0.41792  1.0000
  C   C89       1.0  0.37709  0.18107  0.39990  1.0000
  C   C90       1.0  0.34457  0.16552  0.39710  1.0000
  H   H61       1.0  0.43985  0.25326  0.47039  1.0000
  H   H62       1.0  0.47856  0.30705  0.47895  1.0000
  H   H63       1.0  0.45465  0.20813  0.47384  1.0000
  H   H64       1.0  0.49175  0.19135  0.47742  1.0000
  H   H65       1.0  0.38788  0.17888  0.45546  1.0000
  H   H66       1.0  0.33237  0.15251  0.45116  1.0000
  C   C91       1.0  0.73431  0.18787  0.41297  1.0000
  C   C92       1.0  0.70291  0.17937  0.41799  1.0000
  C   C93       1.0  0.79926  0.26099  0.41621  1.0000
  C   C94       1.0  0.80878  0.29263  0.41787  1.0000
  C   C95       1.0  0.81800  0.19787  0.39976  1.0000
  C   C96       1.0  0.83357  0.18092  0.39695  1.0000
  H   H67       1.0  0.74579  0.18839  0.47039  1.0000
  H   H68       1.0  0.69200  0.17330  0.47897  1.0000
  H   H69       1.0  0.79089  0.24830  0.47375  1.0000
  H   H70       1.0  0.80766  0.30218  0.47742  1.0000
  H   H71       1.0  0.82018  0.21084  0.45532  1.0000
  H   H72       1.0  0.84657  0.18172  0.45104  1.0000
  C   C97       1.0  0.81112  0.54823  0.41295  1.0000
  C   C98       1.0  0.81965  0.52535  0.41797  1.0000
  C   C99       1.0  0.73804  0.54007  0.41621  1.0000
  C   C100      1.0  0.70639  0.51799  0.41783  1.0000
  C   C101      1.0  0.80119  0.62195  0.39980  1.0000
  C   C102      1.0  0.81815  0.65448  0.39700  1.0000
  H   H73       1.0  0.81062  0.55921  0.47037  1.0000
  H   H74       1.0  0.82572  0.52052  0.47895  1.0000
  H   H75       1.0  0.75071  0.54444  0.47382  1.0000
  H   H76       1.0  0.69681  0.50733  0.47736  1.0000
  H   H77       1.0  0.78822  0.61117  0.45536  1.0000
  H   H78       1.0  0.81735  0.66667  0.45111  1.0000
  C   C103      1.0  0.24568  0.11865  0.33506  1.0000
  C   C104      1.0  0.22886  0.10957  0.41619  1.0000
  C   C105      1.0  0.19714  0.09907  0.41801  1.0000
  H   H79       1.0  0.18602  0.09270  0.47877  1.0000
  H   H80       1.0  0.23958  0.11044  0.47578  1.0000
  C   C106      1.0  0.27699  0.12811  0.34167  1.0000
  H   H81       1.0  0.28285  0.11357  0.36885  1.0000
  C   C107      1.0  0.88043  0.12888  0.33499  1.0000
  C   C108      1.0  0.88952  0.12116  0.41613  1.0000
  C   C109      1.0  0.90004  0.09995  0.41797  1.0000
  H   H82       1.0  0.90641  0.09521  0.47874  1.0000
  H   H83       1.0  0.88865  0.13101  0.47570  1.0000
  C   C110      1.0  0.87098  0.15074  0.34155  1.0000
  H   H84       1.0  0.88551  0.17114  0.36871  1.0000
  C   C111      1.0  0.87018  0.75337  0.33506  1.0000
  C   C112      1.0  0.87791  0.77019  0.41620  1.0000
  C   C113      1.0  0.89914  0.80191  0.41802  1.0000
  H   H85       1.0  0.90389  0.81303  0.47879  1.0000
  H   H86       1.0  0.86807  0.75948  0.47577  1.0000
  C   C114      1.0  0.84833  0.72207  0.34164  1.0000
  H   H87       1.0  0.82793  0.71620  0.36887  1.0000
  C   C115      1.0  0.55660  0.17163  0.36486  1.0000
  C   C116      1.0  0.56367  0.15260  0.42014  1.0000
  C   C117      1.0  0.58971  0.14902  0.39838  1.0000
  C   C118      1.0  0.54403  0.13623  0.50022  1.0000
  H   H88       1.0  0.52453  0.13991  0.51019  1.0000
  H   H89       1.0  0.55800  0.14400  0.56113  1.0000
  H   H90       1.0  0.53434  0.11137  0.49316  1.0000
  C   C119      1.0  0.59675  0.12845  0.45479  1.0000
  H   H91       1.0  0.61601  0.12609  0.43067  1.0000
  H   H92       1.0  0.57683  0.10516  0.45634  1.0000
  H   H93       1.0  0.60226  0.13741  0.52317  1.0000
  C   C120      1.0  0.53432  0.17931  0.38682  1.0000
  H   H94       1.0  0.53665  0.19004  0.44487  1.0000
  C   C121      1.0  0.82737  0.38678  0.36502  1.0000
  C   C122      1.0  0.84642  0.41288  0.42024  1.0000
  C   C123      1.0  0.85000  0.44250  0.39844  1.0000
  C   C124      1.0  0.86281  0.40963  0.50032  1.0000
  H   H95       1.0  0.85911  0.38645  0.51036  1.0000
  H   H96       1.0  0.85505  0.41585  0.56122  1.0000
  H   H97       1.0  0.88766  0.42479  0.49320  1.0000
  C   C125      1.0  0.87059  0.47012  0.45481  1.0000
  H   H98       1.0  0.87294  0.49173  0.43062  1.0000
  H   H99       1.0  0.89387  0.47348  0.45636  1.0000
  H   H100      1.0  0.86163  0.46669  0.52319  1.0000
  C   C126      1.0  0.81973  0.35683  0.38698  1.0000
  H   H101      1.0  0.80899  0.34841  0.44500  1.0000
  C   C127      1.0  0.61225  0.44248  0.36473  1.0000
  C   C128      1.0  0.58616  0.43538  0.42008  1.0000
  C   C129      1.0  0.55655  0.40933  0.39832  1.0000
  C   C130      1.0  0.58942  0.45499  0.50022  1.0000
  H   H102      1.0  0.61259  0.47450  0.51017  1.0000
  H   H103      1.0  0.58325  0.44101  0.56110  1.0000
  H   H104      1.0  0.57424  0.46467  0.49324  1.0000
  C   C131      1.0  0.52894  0.40225  0.45480  1.0000
  H   H105      1.0  0.50733  0.38299  0.43065  1.0000
  H   H106      1.0  0.52555  0.42216  0.45645  1.0000
  H   H107      1.0  0.53240  0.39673  0.52314  1.0000
  C   C132      1.0  0.64221  0.46475  0.38672  1.0000
  H   H108      1.0  0.65062  0.46240  0.44473  1.0000
