data_image0
_chemical_formula_structural       C10H8C8H3NO3C14H4C3HC2H2NO2C6HC6H5N2O3C10H8C8H3NO3C14H4C3HC2H2NO2C6HC6H5N2O3C10H8C8H3NO3C14H4C3HC2H2NO2C6HC6H5N2O3C10H8C8H3NO3C14H4C3HC2H2NO2C6HC6H5N2O3
_chemical_formula_sum              "C196 H96 N16 O32"
_cell_length_a       33.8362
_cell_length_b       33.836
_cell_length_c       14.9273
_cell_angle_alpha    90
_cell_angle_beta     90
_cell_angle_gamma    89.9983

_space_group_name_H-M_alt    "P 1"
_space_group_IT_number       1

loop_
  _space_group_symop_operation_xyz
  'x, y, z'

loop_
  _atom_site_type_symbol
  _atom_site_label
  _atom_site_symmetry_multiplicity
  _atom_site_fract_x
  _atom_site_fract_y
  _atom_site_fract_z
  _atom_site_occupancy
  C   C1        1.0  0.00596  0.48398  0.29780  1.0000
  C   C2        1.0  0.00553  0.02532  0.29661  1.0000
  C   C3        1.0  0.00358  0.10798  0.33139  1.0000
  C   C4        1.0  0.00507  0.09307  0.24249  1.0000
  C   C5        1.0  0.00607  0.05222  0.22492  1.0000
  C   C6        1.0  0.00739  0.45621  0.22780  1.0000
  C   C7        1.0  0.00848  0.41559  0.24786  1.0000
  C   C8        1.0  0.00756  0.40200  0.33768  1.0000
  C   C9        1.0  0.45806  0.50422  0.00488  1.0000
  C   C10       1.0  0.05415  0.00298  0.00226  1.0000
  H   H1        1.0  0.11453  0.00126  0.03425  1.0000
  H   H2        1.0  0.04533  0.00231  0.06722  1.0000
  H   H3        1.0  0.46761  0.50306  0.06934  1.0000
  H   H4        1.0  0.39827  0.50450  0.04057  1.0000
  H   H5        1.0  0.00596  0.11197  0.18900  1.0000
  H   H6        1.0  0.00723  0.04262  0.16051  1.0000
  H   H7        1.0  0.00787  0.46502  0.16282  1.0000
  H   H8        1.0  0.00953  0.39588  0.19587  1.0000
  C   C11       1.0  0.00885  0.36059  0.35507  1.0000
  C   C12       1.0  0.47698  0.34110  0.39733  1.0000
  C   C13       1.0  0.47597  0.29954  0.40287  1.0000
  C   C14       1.0  0.00710  0.27626  0.36791  1.0000
  C   C15       1.0  0.00316  0.23426  0.36457  1.0000
  C   C16       1.0  0.97748  0.21602  0.30178  1.0000
  C   C17       1.0  0.97709  0.17427  0.29423  1.0000
  C   C18       1.0  0.00203  0.14983  0.34657  1.0000
  H   H9        1.0  0.45855  0.16170  0.24814  1.0000
  H   H10       1.0  0.45319  0.35691  0.41989  1.0000
  H   H11       1.0  0.45161  0.28627  0.43028  1.0000
  N   N1        1.0  0.95385  0.23983  0.24496  1.0000
  O   O1        1.0  0.91772  0.23255  0.25512  1.0000
  O   O2        1.0  0.96270  0.23488  0.16396  1.0000
  O   O3        1.0  0.28951  0.42216  0.42663  1.0000
  C   C19       1.0  0.00501  0.47116  0.38687  1.0000
  C   C20       1.0  0.00473  0.03922  0.38484  1.0000
  C   C21       1.0  0.00398  0.08027  0.40289  1.0000
  C   C22       1.0  0.00534  0.43033  0.40754  1.0000
  C   C23       1.0  0.03923  0.00559  0.50987  1.0000
  C   C24       1.0  0.02639  0.00441  0.59890  1.0000
  C   C25       1.0  0.48503  0.50472  0.59998  1.0000
  C   C26       1.0  0.47120  0.50562  0.51170  1.0000
  C   C27       1.0  0.41722  0.50534  0.65384  1.0000
  C   C28       1.0  0.40237  0.50688  0.56489  1.0000
  C   C29       1.0  0.43016  0.50645  0.49351  1.0000
  C   C30       1.0  0.08007  0.00565  0.48926  1.0000
  C   C31       1.0  0.10837  0.00354  0.55917  1.0000
  C   C32       1.0  0.09480  0.00223  0.64895  1.0000
  H   H12       1.0  0.42085  0.50773  0.42840  1.0000
  H   H13       1.0  0.08892  0.00617  0.42374  1.0000
  H   H14       1.0  0.00280  0.08965  0.46796  1.0000
  H   H15       1.0  0.00512  0.42151  0.47309  1.0000
  C   C33       1.0  0.00488  0.00556  0.44832  1.0000
  C   C34       1.0  0.03988  0.29550  0.32762  1.0000
  C   C35       1.0  0.04026  0.33731  0.32158  1.0000
  H   H16       1.0  0.06348  0.35081  0.28997  1.0000
  C   C36       1.0  0.02685  0.16857  0.40993  1.0000
  C   C37       1.0  0.02760  0.21005  0.41837  1.0000
  H   H17       1.0  0.04605  0.15223  0.44780  1.0000
  H   H18       1.0  0.04693  0.22258  0.46284  1.0000
  N   N2        1.0  0.07088  0.27258  0.29065  1.0000
  O   O4        1.0  0.10334  0.28034  0.32758  1.0000
  O   O5        1.0  0.07423  0.27815  0.20776  1.0000
  C   C38       1.0  0.14976  0.00313  0.54176  1.0000
  C   C39       1.0  0.17339  0.47127  0.57133  1.0000
  C   C40       1.0  0.21480  0.47255  0.56336  1.0000
  C   C41       1.0  0.23399  0.00608  0.52730  1.0000
  C   C42       1.0  0.21063  0.03832  0.49700  1.0000
  C   C43       1.0  0.16881  0.03623  0.50341  1.0000
  H   H19       1.0  0.15230  0.06006  0.48377  1.0000
  C   C44       1.0  0.27618  0.00767  0.52942  1.0000
  C   C45       1.0  0.30018  0.98293  0.47515  1.0000
  C   C46       1.0  0.34192  0.98388  0.48530  1.0000
  C   C47       1.0  0.36054  0.00843  0.54948  1.0000
  C   C48       1.0  0.33603  0.03339  0.60150  1.0000
  C   C49       1.0  0.29470  0.03304  0.59176  1.0000
  H   H20       1.0  0.35869  0.46507  0.44740  1.0000
  H   H21       1.0  0.34808  0.05202  0.64809  1.0000
  H   H22       1.0  0.16062  0.44709  0.60066  1.0000
  H   H23       1.0  0.27811  0.05085  0.63254  1.0000
  H   H24       1.0  0.23095  0.44934  0.58781  1.0000
  N   N3        1.0  0.22966  0.07221  0.46188  1.0000
  N   N4        1.0  0.28186  0.95788  0.41156  1.0000
  O   O6        1.0  0.22203  0.10243  0.50768  1.0000
  O   O7        1.0  0.21955  0.07851  0.38218  1.0000
  O   O8        1.0  0.29270  0.96618  0.33328  1.0000
  C   C50       1.0  0.00596  0.98398  0.29780  1.0000
  C   C51       1.0  0.00553  0.52532  0.29661  1.0000
  C   C52       1.0  0.00358  0.60799  0.33139  1.0000
  C   C53       1.0  0.00507  0.59307  0.24249  1.0000
  C   C54       1.0  0.00607  0.55222  0.22492  1.0000
  C   C55       1.0  0.00739  0.95621  0.22780  1.0000
  C   C56       1.0  0.00848  0.91559  0.24786  1.0000
  C   C57       1.0  0.00756  0.90200  0.33768  1.0000
  C   C58       1.0  0.45806  0.00422  0.00488  1.0000
  C   C59       1.0  0.05415  0.50298  0.00226  1.0000
  H   H25       1.0  0.11453  0.50126  0.03425  1.0000
  H   H26       1.0  0.04533  0.50231  0.06722  1.0000
  H   H27       1.0  0.46761  0.00306  0.06934  1.0000
  H   H28       1.0  0.39827  0.00450  0.04057  1.0000
  H   H29       1.0  0.00596  0.61197  0.18900  1.0000
  H   H30       1.0  0.00723  0.54262  0.16051  1.0000
  H   H31       1.0  0.00787  0.96502  0.16282  1.0000
  H   H32       1.0  0.00953  0.89588  0.19587  1.0000
  C   C60       1.0  0.00885  0.86059  0.35507  1.0000
  C   C61       1.0  0.47698  0.84110  0.39733  1.0000
  C   C62       1.0  0.47597  0.79954  0.40287  1.0000
  C   C63       1.0  0.00710  0.77626  0.36791  1.0000
  C   C64       1.0  0.00316  0.73426  0.36457  1.0000
  C   C65       1.0  0.97748  0.71602  0.30178  1.0000
  C   C66       1.0  0.97709  0.67427  0.29423  1.0000
  C   C67       1.0  0.00203  0.64983  0.34657  1.0000
  H   H33       1.0  0.45855  0.66170  0.24814  1.0000
  H   H34       1.0  0.45319  0.85691  0.41989  1.0000
  H   H35       1.0  0.45161  0.78627  0.43028  1.0000
  N   N5        1.0  0.95385  0.73983  0.24496  1.0000
  O   O9        1.0  0.91772  0.73255  0.25512  1.0000
  O   O10       1.0  0.96270  0.73487  0.16396  1.0000
  O   O11       1.0  0.28951  0.92216  0.42663  1.0000
  C   C68       1.0  0.00501  0.97116  0.38687  1.0000
  C   C69       1.0  0.00473  0.53922  0.38484  1.0000
  C   C70       1.0  0.00398  0.58027  0.40289  1.0000
  C   C71       1.0  0.00534  0.93033  0.40754  1.0000
  C   C72       1.0  0.03923  0.50559  0.50987  1.0000
  C   C73       1.0  0.02639  0.50441  0.59890  1.0000
  C   C74       1.0  0.48503  0.00472  0.59998  1.0000
  C   C75       1.0  0.47120  0.00561  0.51170  1.0000
  C   C76       1.0  0.41722  0.00534  0.65384  1.0000
  C   C77       1.0  0.40237  0.00688  0.56489  1.0000
  C   C78       1.0  0.43016  0.00645  0.49351  1.0000
  C   C79       1.0  0.08007  0.50565  0.48926  1.0000
  C   C80       1.0  0.10837  0.50354  0.55917  1.0000
  C   C81       1.0  0.09480  0.50223  0.64895  1.0000
  H   H36       1.0  0.42085  0.00773  0.42840  1.0000
  H   H37       1.0  0.08892  0.50617  0.42374  1.0000
  H   H38       1.0  0.00280  0.58965  0.46796  1.0000
  H   H39       1.0  0.00512  0.92151  0.47309  1.0000
  C   C82       1.0  0.00488  0.50556  0.44832  1.0000
  C   C83       1.0  0.03988  0.79550  0.32762  1.0000
  C   C84       1.0  0.04026  0.83731  0.32158  1.0000
  H   H40       1.0  0.06348  0.85080  0.28997  1.0000
  C   C85       1.0  0.02685  0.66857  0.40993  1.0000
  C   C86       1.0  0.02760  0.71005  0.41837  1.0000
  H   H41       1.0  0.04605  0.65223  0.44780  1.0000
  H   H42       1.0  0.04693  0.72258  0.46284  1.0000
  N   N6        1.0  0.07088  0.77258  0.29065  1.0000
  O   O12       1.0  0.10334  0.78034  0.32758  1.0000
  O   O13       1.0  0.07423  0.77815  0.20776  1.0000
  C   C87       1.0  0.14976  0.50313  0.54176  1.0000
  C   C88       1.0  0.17339  0.97127  0.57133  1.0000
  C   C89       1.0  0.21480  0.97255  0.56336  1.0000
  C   C90       1.0  0.23399  0.50608  0.52730  1.0000
  C   C91       1.0  0.21063  0.53832  0.49700  1.0000
  C   C92       1.0  0.16881  0.53622  0.50341  1.0000
  H   H43       1.0  0.15230  0.56006  0.48377  1.0000
  C   C93       1.0  0.27618  0.50767  0.52942  1.0000
  C   C94       1.0  0.30018  0.48293  0.47515  1.0000
  C   C95       1.0  0.34192  0.48388  0.48530  1.0000
  C   C96       1.0  0.36054  0.50843  0.54948  1.0000
  C   C97       1.0  0.33603  0.53339  0.60150  1.0000
  C   C98       1.0  0.29470  0.53304  0.59176  1.0000
  H   H44       1.0  0.35869  0.96507  0.44740  1.0000
  H   H45       1.0  0.34808  0.55202  0.64809  1.0000
  H   H46       1.0  0.16062  0.94709  0.60066  1.0000
  H   H47       1.0  0.27811  0.55085  0.63254  1.0000
  H   H48       1.0  0.23095  0.94934  0.58781  1.0000
  N   N7        1.0  0.22966  0.57221  0.46188  1.0000
  N   N8        1.0  0.28186  0.45788  0.41156  1.0000
  O   O14       1.0  0.22203  0.60243  0.50768  1.0000
  O   O15       1.0  0.21955  0.57851  0.38218  1.0000
  O   O16       1.0  0.29270  0.46618  0.33328  1.0000
  C   C99       1.0  0.50596  0.48398  0.29780  1.0000
  C   C100      1.0  0.50553  0.02532  0.29661  1.0000
  C   C101      1.0  0.50358  0.10798  0.33139  1.0000
  C   C102      1.0  0.50507  0.09307  0.24249  1.0000
  C   C103      1.0  0.50607  0.05222  0.22492  1.0000
  C   C104      1.0  0.50739  0.45621  0.22780  1.0000
  C   C105      1.0  0.50848  0.41559  0.24786  1.0000
  C   C106      1.0  0.50756  0.40200  0.33768  1.0000
  C   C107      1.0  0.95806  0.50422  0.00488  1.0000
  C   C108      1.0  0.55415  0.00298  0.00226  1.0000
  H   H49       1.0  0.61453  0.00126  0.03425  1.0000
  H   H50       1.0  0.54533  0.00231  0.06722  1.0000
  H   H51       1.0  0.96761  0.50306  0.06934  1.0000
  H   H52       1.0  0.89827  0.50450  0.04057  1.0000
  H   H53       1.0  0.50596  0.11197  0.18900  1.0000
  H   H54       1.0  0.50723  0.04262  0.16051  1.0000
  H   H55       1.0  0.50787  0.46502  0.16282  1.0000
  H   H56       1.0  0.50953  0.39588  0.19587  1.0000
  C   C109      1.0  0.50885  0.36059  0.35507  1.0000
  C   C110      1.0  0.97698  0.34110  0.39733  1.0000
  C   C111      1.0  0.97597  0.29954  0.40287  1.0000
  C   C112      1.0  0.50710  0.27626  0.36791  1.0000
  C   C113      1.0  0.50316  0.23426  0.36457  1.0000
  C   C114      1.0  0.47748  0.21602  0.30178  1.0000
  C   C115      1.0  0.47709  0.17427  0.29423  1.0000
  C   C116      1.0  0.50203  0.14983  0.34657  1.0000
  H   H57       1.0  0.95855  0.16170  0.24814  1.0000
  H   H58       1.0  0.95319  0.35691  0.41989  1.0000
  H   H59       1.0  0.95161  0.28627  0.43028  1.0000
  N   N9        1.0  0.45385  0.23983  0.24496  1.0000
  O   O17       1.0  0.41772  0.23255  0.25512  1.0000
  O   O18       1.0  0.46270  0.23488  0.16396  1.0000
  O   O19       1.0  0.78951  0.42216  0.42663  1.0000
  C   C117      1.0  0.50501  0.47116  0.38687  1.0000
  C   C118      1.0  0.50473  0.03922  0.38484  1.0000
  C   C119      1.0  0.50399  0.08027  0.40289  1.0000
  C   C120      1.0  0.50534  0.43033  0.40754  1.0000
  C   C121      1.0  0.53923  0.00559  0.50987  1.0000
  C   C122      1.0  0.52639  0.00441  0.59890  1.0000
  C   C123      1.0  0.98503  0.50472  0.59998  1.0000
  C   C124      1.0  0.97120  0.50562  0.51170  1.0000
  C   C125      1.0  0.91722  0.50534  0.65384  1.0000
  C   C126      1.0  0.90237  0.50688  0.56489  1.0000
  C   C127      1.0  0.93016  0.50645  0.49351  1.0000
  C   C128      1.0  0.58007  0.00565  0.48926  1.0000
  C   C129      1.0  0.60837  0.00354  0.55917  1.0000
  C   C130      1.0  0.59480  0.00223  0.64895  1.0000
  H   H60       1.0  0.92085  0.50773  0.42840  1.0000
  H   H61       1.0  0.58892  0.00617  0.42374  1.0000
  H   H62       1.0  0.50280  0.08965  0.46796  1.0000
  H   H63       1.0  0.50512  0.42151  0.47309  1.0000
  C   C131      1.0  0.50488  0.00556  0.44832  1.0000
  C   C132      1.0  0.53988  0.29550  0.32762  1.0000
  C   C133      1.0  0.54026  0.33731  0.32158  1.0000
  H   H64       1.0  0.56348  0.35081  0.28997  1.0000
  C   C134      1.0  0.52685  0.16857  0.40993  1.0000
  C   C135      1.0  0.52760  0.21005  0.41837  1.0000
  H   H65       1.0  0.54604  0.15223  0.44780  1.0000
  H   H66       1.0  0.54693  0.22258  0.46284  1.0000
  N   N10       1.0  0.57088  0.27258  0.29065  1.0000
  O   O20       1.0  0.60334  0.28034  0.32758  1.0000
  O   O21       1.0  0.57423  0.27815  0.20776  1.0000
  C   C136      1.0  0.64976  0.00313  0.54176  1.0000
  C   C137      1.0  0.67339  0.47127  0.57133  1.0000
  C   C138      1.0  0.71479  0.47255  0.56336  1.0000
  C   C139      1.0  0.73399  0.00608  0.52730  1.0000
  C   C140      1.0  0.71063  0.03832  0.49700  1.0000
  C   C141      1.0  0.66881  0.03623  0.50341  1.0000
  H   H67       1.0  0.65230  0.06006  0.48377  1.0000
  C   C142      1.0  0.77618  0.00767  0.52942  1.0000
  C   C143      1.0  0.80018  0.98293  0.47515  1.0000
  C   C144      1.0  0.84192  0.98388  0.48530  1.0000
  C   C145      1.0  0.86054  0.00843  0.54948  1.0000
  C   C146      1.0  0.83602  0.03339  0.60150  1.0000
  C   C147      1.0  0.79470  0.03304  0.59176  1.0000
  H   H68       1.0  0.85869  0.46507  0.44740  1.0000
  H   H69       1.0  0.84808  0.05202  0.64809  1.0000
  H   H70       1.0  0.66061  0.44709  0.60066  1.0000
  H   H71       1.0  0.77811  0.05085  0.63254  1.0000
  H   H72       1.0  0.73096  0.44934  0.58781  1.0000
  N   N11       1.0  0.72966  0.07221  0.46188  1.0000
  N   N12       1.0  0.78186  0.95788  0.41156  1.0000
  O   O22       1.0  0.72203  0.10243  0.50768  1.0000
  O   O23       1.0  0.71955  0.07851  0.38218  1.0000
  O   O24       1.0  0.79270  0.96618  0.33328  1.0000
  C   C148      1.0  0.50596  0.98398  0.29780  1.0000
  C   C149      1.0  0.50553  0.52532  0.29661  1.0000
  C   C150      1.0  0.50358  0.60799  0.33139  1.0000
  C   C151      1.0  0.50507  0.59307  0.24249  1.0000
  C   C152      1.0  0.50607  0.55222  0.22492  1.0000
  C   C153      1.0  0.50739  0.95621  0.22780  1.0000
  C   C154      1.0  0.50848  0.91559  0.24786  1.0000
  C   C155      1.0  0.50756  0.90200  0.33768  1.0000
  C   C156      1.0  0.95806  0.00422  0.00488  1.0000
  C   C157      1.0  0.55415  0.50298  0.00226  1.0000
  H   H73       1.0  0.61453  0.50126  0.03425  1.0000
  H   H74       1.0  0.54533  0.50231  0.06722  1.0000
  H   H75       1.0  0.96761  0.00306  0.06934  1.0000
  H   H76       1.0  0.89827  0.00450  0.04057  1.0000
  H   H77       1.0  0.50596  0.61197  0.18900  1.0000
  H   H78       1.0  0.50723  0.54262  0.16051  1.0000
  H   H79       1.0  0.50787  0.96502  0.16282  1.0000
  H   H80       1.0  0.50953  0.89588  0.19587  1.0000
  C   C158      1.0  0.50885  0.86059  0.35507  1.0000
  C   C159      1.0  0.97698  0.84110  0.39733  1.0000
  C   C160      1.0  0.97597  0.79954  0.40287  1.0000
  C   C161      1.0  0.50710  0.77626  0.36791  1.0000
  C   C162      1.0  0.50316  0.73426  0.36457  1.0000
  C   C163      1.0  0.47748  0.71602  0.30178  1.0000
  C   C164      1.0  0.47709  0.67427  0.29423  1.0000
  C   C165      1.0  0.50203  0.64983  0.34657  1.0000
  H   H81       1.0  0.95855  0.66170  0.24814  1.0000
  H   H82       1.0  0.95319  0.85691  0.41989  1.0000
  H   H83       1.0  0.95161  0.78627  0.43028  1.0000
  N   N13       1.0  0.45385  0.73983  0.24496  1.0000
  O   O25       1.0  0.41772  0.73255  0.25512  1.0000
  O   O26       1.0  0.46270  0.73487  0.16396  1.0000
  O   O27       1.0  0.78951  0.92216  0.42663  1.0000
  C   C166      1.0  0.50501  0.97116  0.38687  1.0000
  C   C167      1.0  0.50473  0.53922  0.38484  1.0000
  C   C168      1.0  0.50399  0.58027  0.40289  1.0000
  C   C169      1.0  0.50534  0.93033  0.40754  1.0000
  C   C170      1.0  0.53923  0.50559  0.50987  1.0000
  C   C171      1.0  0.52639  0.50441  0.59890  1.0000
  C   C172      1.0  0.98503  0.00472  0.59998  1.0000
  C   C173      1.0  0.97120  0.00561  0.51170  1.0000
  C   C174      1.0  0.91722  0.00534  0.65384  1.0000
  C   C175      1.0  0.90237  0.00688  0.56489  1.0000
  C   C176      1.0  0.93016  0.00645  0.49351  1.0000
  C   C177      1.0  0.58007  0.50565  0.48926  1.0000
  C   C178      1.0  0.60837  0.50354  0.55917  1.0000
  C   C179      1.0  0.59480  0.50223  0.64895  1.0000
  H   H84       1.0  0.92085  0.00773  0.42840  1.0000
  H   H85       1.0  0.58892  0.50617  0.42374  1.0000
  H   H86       1.0  0.50280  0.58965  0.46796  1.0000
  H   H87       1.0  0.50512  0.92151  0.47309  1.0000
  C   C180      1.0  0.50488  0.50556  0.44832  1.0000
  C   C181      1.0  0.53988  0.79550  0.32762  1.0000
  C   C182      1.0  0.54026  0.83731  0.32158  1.0000
  H   H88       1.0  0.56348  0.85080  0.28997  1.0000
  C   C183      1.0  0.52685  0.66857  0.40993  1.0000
  C   C184      1.0  0.52760  0.71005  0.41837  1.0000
  H   H89       1.0  0.54604  0.65223  0.44780  1.0000
  H   H90       1.0  0.54693  0.72258  0.46284  1.0000
  N   N14       1.0  0.57088  0.77258  0.29065  1.0000
  O   O28       1.0  0.60334  0.78034  0.32758  1.0000
  O   O29       1.0  0.57423  0.77815  0.20776  1.0000
  C   C185      1.0  0.64976  0.50313  0.54176  1.0000
  C   C186      1.0  0.67339  0.97127  0.57133  1.0000
  C   C187      1.0  0.71479  0.97255  0.56336  1.0000
  C   C188      1.0  0.73399  0.50608  0.52730  1.0000
  C   C189      1.0  0.71063  0.53832  0.49700  1.0000
  C   C190      1.0  0.66881  0.53622  0.50341  1.0000
  H   H91       1.0  0.65230  0.56006  0.48377  1.0000
  C   C191      1.0  0.77618  0.50767  0.52942  1.0000
  C   C192      1.0  0.80018  0.48293  0.47515  1.0000
  C   C193      1.0  0.84192  0.48388  0.48530  1.0000
  C   C194      1.0  0.86054  0.50843  0.54948  1.0000
  C   C195      1.0  0.83602  0.53339  0.60150  1.0000
  C   C196      1.0  0.79470  0.53304  0.59176  1.0000
  H   H92       1.0  0.85869  0.96507  0.44740  1.0000
  H   H93       1.0  0.84808  0.55202  0.64809  1.0000
  H   H94       1.0  0.66062  0.94709  0.60066  1.0000
  H   H95       1.0  0.77811  0.55085  0.63254  1.0000
  H   H96       1.0  0.73096  0.94934  0.58781  1.0000
  N   N15       1.0  0.72966  0.57221  0.46188  1.0000
  N   N16       1.0  0.78186  0.45788  0.41156  1.0000
  O   O30       1.0  0.72203  0.60243  0.50768  1.0000
  O   O31       1.0  0.71955  0.57851  0.38218  1.0000
  O   O32       1.0  0.79270  0.46618  0.33328  1.0000
