data_image0
_chemical_formula_structural       C16H16C3NH3CHC3NH3CHC3NC3NC5NC5NC36H26N4CN2CHCN2CH
_chemical_formula_sum              "C80 H52 N14"
_cell_length_a       34.2118
_cell_length_b       34.2099
_cell_length_c       14.6809
_cell_angle_alpha    90
_cell_angle_beta     90
_cell_angle_gamma    89.934

_space_group_name_H-M_alt    "P 1"
_space_group_IT_number       1

loop_
  _space_group_symop_operation_xyz
  'x, y, z'

loop_
  _atom_site_type_symbol
  _atom_site_label
  _atom_site_symmetry_multiplicity
  _atom_site_fract_x
  _atom_site_fract_y
  _atom_site_fract_z
  _atom_site_occupancy
  C   C1        1.0  0.17930  0.01341  0.29569  1.0000
  C   C2        1.0  0.22046  0.01432  0.29443  1.0000
  C   C3        1.0  0.34575  0.04120  0.31579  1.0000
  C   C4        1.0  0.30461  0.03983  0.31820  1.0000
  C   C5        1.0  0.01190  0.17653  0.29959  1.0000
  C   C6        1.0  0.01222  0.21771  0.30013  1.0000
  C   C7        1.0  0.99026  0.30266  0.32825  1.0000
  C   C8        1.0  0.99002  0.34383  0.32869  1.0000
  C   C9        1.0  0.80726  0.00926  0.30050  1.0000
  C   C10       1.0  0.84843  0.00846  0.29976  1.0000
  C   C11       1.0  0.72217  0.98823  0.32904  1.0000
  C   C12       1.0  0.68100  0.98834  0.32981  1.0000
  C   C13       1.0  0.01704  0.84579  0.29559  1.0000
  C   C14       1.0  0.01782  0.80463  0.29411  1.0000
  C   C15       1.0  0.04315  0.67890  0.31464  1.0000
  C   C16       1.0  0.04229  0.72006  0.31740  1.0000
  H   H1        1.0  0.06272  0.66538  0.27227  1.0000
  H   H2        1.0  0.06190  0.73505  0.27811  1.0000
  H   H3        1.0  0.02055  0.79100  0.23242  1.0000
  H   H4        1.0  0.01981  0.86080  0.23561  1.0000
  H   H5        1.0  0.86274  0.00498  0.23905  1.0000
  H   H6        1.0  0.79293  0.00683  0.23961  1.0000
  H   H7        1.0  0.00868  0.16214  0.23892  1.0000
  H   H8        1.0  0.00967  0.23197  0.23917  1.0000
  H   H9        1.0  0.96985  0.35822  0.28966  1.0000
  H   H10       1.0  0.97001  0.28854  0.28897  1.0000
  H   H11       1.0  0.28940  0.05921  0.27864  1.0000
  H   H12       1.0  0.35905  0.06087  0.27338  1.0000
  H   H13       1.0  0.23414  0.01704  0.23281  1.0000
  H   H14       1.0  0.16434  0.01612  0.23563  1.0000
  H   H15       1.0  0.73609  0.96785  0.28966  1.0000
  H   H16       1.0  0.66641  0.96831  0.29088  1.0000
  C   C17       1.0  0.01217  0.46937  0.33653  1.0000
  C   C18       1.0  0.01036  0.49579  0.26269  1.0000
  C   C19       1.0  0.00715  0.53662  0.27727  1.0000
  N   N1        1.0  0.00304  0.56024  0.20327  1.0000
  H   H17       1.0  0.00264  0.54958  0.14179  1.0000
  H   H18       1.0  0.99820  0.58804  0.20883  1.0000
  H   H19       1.0  0.01004  0.48513  0.19747  1.0000
  C   C20       1.0  0.01234  0.42918  0.32254  1.0000
  H   H20       1.0  0.00849  0.41933  0.25934  1.0000
  C   C21       1.0  0.55572  0.01180  0.33805  1.0000
  C   C22       1.0  0.52927  0.01150  0.26415  1.0000
  C   C23       1.0  0.48844  0.00814  0.27845  1.0000
  N   N2        1.0  0.46483  0.00551  0.20405  1.0000
  H   H21       1.0  0.47555  0.00606  0.14263  1.0000
  H   H22       1.0  0.43709  0.00038  0.20908  1.0000
  H   H23       1.0  0.53992  0.01238  0.19895  1.0000
  C   C24       1.0  0.59589  0.01191  0.32400  1.0000
  H   H24       1.0  0.60572  0.00862  0.26060  1.0000
  C   C25       1.0  0.08591  0.90864  0.38036  1.0000
  C   C26       1.0  0.11478  0.93684  0.38016  1.0000
  C   C27       1.0  0.09685  0.97356  0.38069  1.0000
  N   N3        1.0  0.05787  0.96618  0.38107  1.0000
  C   C28       1.0  0.04958  0.92738  0.38050  1.0000
  C   C29       1.0  0.01273  0.90800  0.38023  1.0000
  C   C30       1.0  0.97591  0.92731  0.38058  1.0000
  N   N4        1.0  0.96874  0.96621  0.38078  1.0000
  C   C31       1.0  0.93002  0.97430  0.38078  1.0000
  C   C32       1.0  0.91110  0.93814  0.38082  1.0000
  C   C33       1.0  0.93932  0.90924  0.38034  1.0000
  C   C34       1.0  0.91159  0.01158  0.38102  1.0000
  C   C35       1.0  0.93183  0.04795  0.38100  1.0000
  N   N5        1.0  0.97081  0.05532  0.38085  1.0000
  C   C36       1.0  0.97911  0.09412  0.38087  1.0000
  C   C37       1.0  0.94281  0.11289  0.38103  1.0000
  C   C38       1.0  0.91394  0.08471  0.38077  1.0000
  C   C39       1.0  0.01596  0.11350  0.38110  1.0000
  C   C40       1.0  0.05276  0.09417  0.38105  1.0000
  N   N6        1.0  0.05990  0.05527  0.38096  1.0000
  C   C41       1.0  0.09861  0.04720  0.38051  1.0000
  C   C42       1.0  0.11755  0.08335  0.38047  1.0000
  C   C43       1.0  0.08934  0.11225  0.38054  1.0000
  C   C44       1.0  0.11707  0.00994  0.38028  1.0000
  C   C45       1.0  0.15884  0.00923  0.37864  1.0000
  C   C46       1.0  0.24261  0.01107  0.37574  1.0000
  C   C47       1.0  0.22171  0.00641  0.45844  1.0000
  C   C48       1.0  0.18053  0.00564  0.46006  1.0000
  C   C49       1.0  0.28455  0.01279  0.37441  1.0000
  C   C50       1.0  0.30759  0.98739  0.42868  1.0000
  C   C51       1.0  0.34876  0.98869  0.42622  1.0000
  C   C52       1.0  0.36851  0.01578  0.36983  1.0000
  C   C53       1.0  0.01614  0.15529  0.38145  1.0000
  C   C54       1.0  0.01690  0.23910  0.38219  1.0000
  C   C55       1.0  0.02127  0.21738  0.46382  1.0000
  C   C56       1.0  0.02086  0.17620  0.46364  1.0000
  C   C57       1.0  0.01689  0.28110  0.38263  1.0000
  C   C58       1.0  0.01662  0.36510  0.38324  1.0000
  C   C59       1.0  0.04272  0.34392  0.43891  1.0000
  C   C60       1.0  0.04304  0.30270  0.43812  1.0000
  C   C61       1.0  0.86980  0.01247  0.38150  1.0000
  C   C62       1.0  0.84900  0.01750  0.46376  1.0000
  C   C63       1.0  0.80783  0.01843  0.46414  1.0000
  C   C64       1.0  0.78598  0.01424  0.38263  1.0000
  C   C65       1.0  0.74398  0.01464  0.38332  1.0000
  C   C66       1.0  0.65999  0.01510  0.38462  1.0000
  C   C67       1.0  0.68141  0.04102  0.44012  1.0000
  C   C68       1.0  0.72263  0.04098  0.43899  1.0000
  C   C69       1.0  0.01267  0.86620  0.37857  1.0000
  C   C70       1.0  0.00880  0.84444  0.45980  1.0000
  C   C71       1.0  0.01417  0.78240  0.37521  1.0000
  C   C72       1.0  0.00943  0.80326  0.45796  1.0000
  C   C73       1.0  0.01542  0.74043  0.37358  1.0000
  C   C74       1.0  0.98965  0.71766  0.42741  1.0000
  C   C75       1.0  0.99047  0.67647  0.42466  1.0000
  C   C76       1.0  0.01740  0.65642  0.36833  1.0000
  H   H25       1.0  0.97060  0.66135  0.46275  1.0000
  H   H26       1.0  0.96903  0.73091  0.46738  1.0000
  H   H27       1.0  0.00738  0.78862  0.51853  1.0000
  H   H28       1.0  0.00582  0.85847  0.52101  1.0000
  H   H29       1.0  0.09116  0.87923  0.38007  1.0000
  H   H30       1.0  0.14406  0.93095  0.37958  1.0000
  H   H31       1.0  0.03824  0.98626  0.38121  1.0000
  H   H32       1.0  0.99043  0.03523  0.38093  1.0000
  H   H33       1.0  0.93360  0.87993  0.38003  1.0000
  H   H34       1.0  0.88167  0.93311  0.38100  1.0000
  H   H35       1.0  0.86372  0.02033  0.52410  1.0000
  H   H36       1.0  0.79390  0.02131  0.52543  1.0000
  H   H37       1.0  0.88467  0.09064  0.38058  1.0000
  H   H38       1.0  0.93759  0.14231  0.38125  1.0000
  H   H39       1.0  0.14698  0.08840  0.38029  1.0000
  H   H40       1.0  0.09507  0.14155  0.38018  1.0000
  H   H41       1.0  0.02388  0.16156  0.52403  1.0000
  H   H42       1.0  0.02401  0.23139  0.52504  1.0000
  H   H43       1.0  0.06317  0.28858  0.47783  1.0000
  H   H44       1.0  0.06215  0.35845  0.47967  1.0000
  H   H45       1.0  0.16645  0.00296  0.52126  1.0000
  H   H46       1.0  0.23629  0.00470  0.51913  1.0000
  H   H47       1.0  0.36411  0.96911  0.46475  1.0000
  H   H48       1.0  0.29457  0.96670  0.46879  1.0000
  H   H49       1.0  0.73693  0.06096  0.47864  1.0000
  H   H50       1.0  0.66707  0.06054  0.48106  1.0000
  N   N7        1.0  0.40724  0.01729  0.35898  1.0000
  N   N8        1.0  0.01845  0.61768  0.35727  1.0000
  N   N9        1.0  0.62095  0.01566  0.38891  1.0000
  N   N10       1.0  0.01693  0.40415  0.38723  1.0000
  C   C77       1.0  0.00698  0.55018  0.36911  1.0000
  N   N11       1.0  0.00890  0.52277  0.43627  1.0000
  N   N12       1.0  0.01131  0.48509  0.42149  1.0000
  C   C78       1.0  0.00176  0.58863  0.39708  1.0000
  H   H51       1.0  0.98439  0.59354  0.45009  1.0000
  C   C79       1.0  0.47490  0.00624  0.37021  1.0000
  N   N13       1.0  0.50235  0.00683  0.43742  1.0000
  N   N14       1.0  0.54002  0.00940  0.42286  1.0000
  C   C80       1.0  0.43649  0.00049  0.39786  1.0000
  H   H52       1.0  0.43175  0.98248  0.44979  1.0000
