data_image0
_chemical_formula_structural       C10H5C6H3N2C10H5C6H3N2C3HCH3CHC3HCH3CHC3HCH3CHC8H7NC8H7NC3HCH3CHC3HCH3CHC3HCH3CH
_chemical_formula_sum              "C78 H60 N6"
_cell_length_a       37.3215
_cell_length_b       37.2919
_cell_length_c       14.6504
_cell_angle_alpha    90
_cell_angle_beta     90
_cell_angle_gamma    120.023

_space_group_name_H-M_alt    "P 1"
_space_group_IT_number       1

loop_
  _space_group_symop_operation_xyz
  'x, y, z'

loop_
  _atom_site_type_symbol
  _atom_site_label
  _atom_site_symmetry_multiplicity
  _atom_site_fract_x
  _atom_site_fract_y
  _atom_site_fract_z
  _atom_site_occupancy
  C   C1        1.0  0.39387  0.63266  0.34431  1.0000
  C   C2        1.0  0.26148  0.63523  0.35163  1.0000
  C   C3        1.0  0.37991  0.59632  0.29094  1.0000
  C   C4        1.0  0.40091  0.57367  0.29095  1.0000
  C   C5        1.0  0.43710  0.58671  0.34325  1.0000
  C   C6        1.0  0.40615  0.83488  0.30289  1.0000
  C   C7        1.0  0.38356  0.79122  0.30201  1.0000
  C   C8        1.0  0.23899  0.65002  0.30141  1.0000
  C   C9        1.0  0.19535  0.62904  0.30212  1.0000
  C   C10       1.0  0.17231  0.59201  0.35191  1.0000
  H   H1        1.0  0.38967  0.54755  0.25159  1.0000
  H   H2        1.0  0.35798  0.77689  0.26102  1.0000
  H   H3        1.0  0.39615  0.85058  0.26285  1.0000
  H   H4        1.0  0.25422  0.67613  0.26225  1.0000
  H   H5        1.0  0.18041  0.64084  0.26486  1.0000
  C   C11       1.0  0.30610  0.65680  0.35085  1.0000
  C   C12       1.0  0.32958  0.70067  0.35360  1.0000
  C   C13       1.0  0.37345  0.72284  0.35177  1.0000
  C   C14       1.0  0.39383  0.69943  0.34771  1.0000
  C   C15       1.0  0.37211  0.65551  0.34611  1.0000
  C   C16       1.0  0.32825  0.63508  0.34735  1.0000
  H   H6        1.0  0.42543  0.71486  0.34303  1.0000
  H   H7        1.0  0.31195  0.60341  0.34589  1.0000
  H   H8        1.0  0.35433  0.58609  0.25032  1.0000
  N   N1        1.0  0.13102  0.57415  0.35140  1.0000
  N   N2        1.0  0.45494  0.56325  0.34250  1.0000
  C   C17       1.0  0.64072  0.39101  0.35086  1.0000
  C   C18       1.0  0.77308  0.38867  0.35849  1.0000
  C   C19       1.0  0.65418  0.42677  0.29582  1.0000
  C   C20       1.0  0.63315  0.44939  0.29561  1.0000
  C   C21       1.0  0.59758  0.43705  0.34977  1.0000
  C   C22       1.0  0.62940  0.18887  0.31183  1.0000
  C   C23       1.0  0.65181  0.23253  0.31078  1.0000
  C   C24       1.0  0.79556  0.37443  0.30650  1.0000
  C   C25       1.0  0.83920  0.39548  0.30708  1.0000
  C   C26       1.0  0.86225  0.43187  0.35896  1.0000
  H   H9        1.0  0.64404  0.47511  0.25504  1.0000
  H   H10       1.0  0.67775  0.24687  0.27090  1.0000
  H   H11       1.0  0.63984  0.17314  0.27318  1.0000
  H   H12       1.0  0.78031  0.34869  0.26624  1.0000
  H   H13       1.0  0.85413  0.38406  0.26857  1.0000
  C   C27       1.0  0.72850  0.36705  0.35781  1.0000
  C   C28       1.0  0.70510  0.32319  0.36065  1.0000
  C   C29       1.0  0.66122  0.30090  0.35872  1.0000
  C   C30       1.0  0.64081  0.32430  0.35456  1.0000
  C   C31       1.0  0.66250  0.36821  0.35286  1.0000
  C   C32       1.0  0.70634  0.38875  0.35420  1.0000
  H   H14       1.0  0.60922  0.30891  0.34980  1.0000
  H   H15       1.0  0.72261  0.42042  0.35269  1.0000
  H   H16       1.0  0.67937  0.43656  0.25415  1.0000
  N   N3        1.0  0.90355  0.44954  0.35796  1.0000
  N   N4        1.0  0.58003  0.46080  0.34856  1.0000
  C   C33       1.0  0.50468  0.54266  0.35531  1.0000
  C   C34       1.0  0.50329  0.51915  0.27740  1.0000
  C   C35       1.0  0.51729  0.49027  0.28577  1.0000
  H   H17       1.0  0.51572  0.47293  0.22993  1.0000
  C   C36       1.0  0.48837  0.52325  0.18583  1.0000
  H   H18       1.0  0.47963  0.54706  0.18294  1.0000
  H   H19       1.0  0.46140  0.49384  0.16649  1.0000
  H   H20       1.0  0.51270  0.53123  0.13524  1.0000
  C   C37       1.0  0.49283  0.57259  0.35464  1.0000
  H   H21       1.0  0.51437  0.60174  0.36759  1.0000
  C   C38       1.0  0.49002  0.96860  0.34048  1.0000
  C   C39       1.0  0.51368  0.99054  0.26274  1.0000
  C   C40       1.0  0.54255  0.03337  0.27106  1.0000
  H   H22       1.0  0.55963  0.04903  0.21482  1.0000
  C   C41       1.0  0.51008  0.97117  0.17172  1.0000
  H   H23       1.0  0.48765  0.93812  0.17023  1.0000
  H   H24       1.0  0.54004  0.97511  0.15183  1.0000
  H   H25       1.0  0.50065  0.98622  0.12084  1.0000
  C   C42       1.0  0.45917  0.92733  0.33637  1.0000
  H   H26       1.0  0.43145  0.92099  0.31427  1.0000
  C   C43       1.0  0.06064  0.52455  0.36299  1.0000
  C   C44       1.0  0.03854  0.52590  0.28505  1.0000
  C   C45       1.0  0.99573  0.51211  0.29355  1.0000
  H   H27       1.0  0.97996  0.51362  0.23766  1.0000
  C   C46       1.0  0.05754  0.54060  0.19336  1.0000
  H   H28       1.0  0.09008  0.54936  0.19057  1.0000
  H   H29       1.0  0.05511  0.56753  0.17354  1.0000
  H   H30       1.0  0.04114  0.51610  0.14306  1.0000
  C   C47       1.0  0.10234  0.53618  0.36211  1.0000
  H   H31       1.0  0.10974  0.51439  0.37353  1.0000
  C   C48       1.0  0.39639  0.76745  0.35359  1.0000
  C   C49       1.0  0.45112  0.62272  0.39731  1.0000
  C   C50       1.0  0.42996  0.64518  0.39763  1.0000
  C   C51       1.0  0.43301  0.78956  0.40607  1.0000
  C   C52       1.0  0.45569  0.83323  0.40681  1.0000
  C   C53       1.0  0.44254  0.85667  0.35587  1.0000
  C   C54       1.0  0.19440  0.57717  0.40296  1.0000
  C   C55       1.0  0.23804  0.59833  0.40262  1.0000
  H   H32       1.0  0.47644  0.63244  0.43849  1.0000
  H   H33       1.0  0.44073  0.67041  0.43963  1.0000
  H   H34       1.0  0.44342  0.77400  0.44548  1.0000
  H   H35       1.0  0.48204  0.84791  0.44545  1.0000
  H   H36       1.0  0.17887  0.55114  0.44219  1.0000
  H   H37       1.0  0.25259  0.58684  0.44211  1.0000
  H   H38       1.0  0.31433  0.71694  0.36003  1.0000
  N   N5        1.0  0.46634  0.89798  0.35746  1.0000
  C   C56       1.0  0.63833  0.25626  0.36050  1.0000
  C   C57       1.0  0.58409  0.40156  0.40542  1.0000
  C   C58       1.0  0.60517  0.37902  0.40569  1.0000
  C   C59       1.0  0.60111  0.23402  0.41106  1.0000
  C   C60       1.0  0.57852  0.19034  0.41176  1.0000
  C   C61       1.0  0.59249  0.16703  0.36305  1.0000
  C   C62       1.0  0.84009  0.44618  0.41156  1.0000
  C   C63       1.0  0.79645  0.42505  0.41107  1.0000
  H   H39       1.0  0.55921  0.39220  0.44778  1.0000
  H   H40       1.0  0.59479  0.35415  0.44868  1.0000
  H   H41       1.0  0.59019  0.24948  0.44921  1.0000
  H   H42       1.0  0.55177  0.17557  0.44904  1.0000
  H   H43       1.0  0.85551  0.47179  0.45201  1.0000
  H   H44       1.0  0.78183  0.43612  0.45160  1.0000
  H   H45       1.0  0.72048  0.30704  0.36710  1.0000
  N   N6        1.0  0.56903  0.12570  0.36428  1.0000
  C   C64       1.0  0.53337  0.48461  0.36848  1.0000
  C   C65       1.0  0.53509  0.50831  0.44617  1.0000
  C   C66       1.0  0.52095  0.53702  0.43786  1.0000
  H   H46       1.0  0.52237  0.55412  0.49407  1.0000
  C   C67       1.0  0.55108  0.50494  0.53709  1.0000
  H   H47       1.0  0.56189  0.48267  0.53853  1.0000
  H   H48       1.0  0.52666  0.49539  0.58815  1.0000
  H   H49       1.0  0.57702  0.53503  0.55674  1.0000
  C   C68       1.0  0.54394  0.45389  0.37271  1.0000
  H   H50       1.0  0.52309  0.42650  0.39763  1.0000
  C   C69       1.0  0.54833  0.05528  0.35366  1.0000
  C   C70       1.0  0.52483  0.03322  0.43161  1.0000
  C   C71       1.0  0.49582  0.99036  0.42325  1.0000
  H   H51       1.0  0.47851  0.97462  0.47914  1.0000
  C   C72       1.0  0.52905  0.05233  0.52315  1.0000
  H   H52       1.0  0.55279  0.08493  0.52579  1.0000
  H   H53       1.0  0.53716  0.03604  0.57366  1.0000
  H   H54       1.0  0.49967  0.04984  0.54277  1.0000
  C   C73       1.0  0.57837  0.09702  0.35442  1.0000
  H   H55       1.0  0.60757  0.10445  0.34327  1.0000
  C   C74       1.0  0.97405  0.49633  0.37647  1.0000
  C   C75       1.0  0.99603  0.49467  0.45419  1.0000
  C   C76       1.0  0.03881  0.50857  0.44573  1.0000
  H   H56       1.0  0.05449  0.50719  0.50195  1.0000
  C   C77       1.0  0.97674  0.47898  0.54530  1.0000
  H   H57       1.0  0.94372  0.46837  0.54688  1.0000
  H   H58       1.0  0.99182  0.50354  0.59605  1.0000
  H   H59       1.0  0.98067  0.45296  0.56529  1.0000
  C   C78       1.0  0.93280  0.48586  0.38069  1.0000
  H   H60       1.0  0.92638  0.50700  0.40418  1.0000
