data_image0
_chemical_formula_structural       C8H5CN2HNC8H5CN2HNC2H2C3H2CHC2H2C3H2CHC2H2C3H2CHC10H6CNCN2C10H6CNCN2C7H2N2O4CHC7H2N2O4CHC7H2N2O4CH
_chemical_formula_sum              "C84 H48 N18 O12"
_cell_length_a       44.2083
_cell_length_b       44.2084
_cell_length_c       15.0037
_cell_angle_alpha    90
_cell_angle_beta     90
_cell_angle_gamma    120

_space_group_name_H-M_alt    "P 1"
_space_group_IT_number       1

loop_
  _space_group_symop_operation_xyz
  'x, y, z'

loop_
  _atom_site_type_symbol
  _atom_site_label
  _atom_site_symmetry_multiplicity
  _atom_site_fract_x
  _atom_site_fract_y
  _atom_site_fract_z
  _atom_site_occupancy
  C   C1        1.0  0.36648  0.62668  0.32946  1.0000
  C   C2        1.0  0.41004  0.75745  0.32670  1.0000
  C   C3        1.0  0.42997  0.79415  0.32969  1.0000
  C   C4        1.0  0.20264  0.57955  0.33814  1.0000
  C   C5        1.0  0.23929  0.59633  0.33455  1.0000
  C   C6        1.0  0.34716  0.58965  0.32672  1.0000
  C   C7        1.0  0.36393  0.56973  0.32972  1.0000
  C   C8        1.0  0.40054  0.58617  0.33730  1.0000
  H   H1        1.0  0.45664  0.80606  0.32757  1.0000
  H   H2        1.0  0.25064  0.58106  0.33605  1.0000
  H   H3        1.0  0.18863  0.55287  0.34094  1.0000
  H   H4        1.0  0.32050  0.57660  0.32233  1.0000
  H   H5        1.0  0.34917  0.54305  0.32761  1.0000
  C   C9        1.0  0.34953  0.64693  0.32765  1.0000
  N   N1        1.0  0.31414  0.63164  0.32780  1.0000
  N   N2        1.0  0.36806  0.68244  0.32782  1.0000
  H   H6        1.0  0.42309  0.74384  0.32231  1.0000
  N   N3        1.0  0.41535  0.56641  0.33859  1.0000
  C   C10       1.0  0.62841  0.36843  0.33940  1.0000
  C   C11       1.0  0.59435  0.24011  0.33336  1.0000
  C   C12       1.0  0.57662  0.20339  0.33298  1.0000
  C   C13       1.0  0.79511  0.42726  0.34600  1.0000
  C   C14       1.0  0.75836  0.40824  0.34577  1.0000
  C   C15       1.0  0.64550  0.40534  0.33340  1.0000
  C   C16       1.0  0.62651  0.42307  0.33305  1.0000
  C   C17       1.0  0.58966  0.40442  0.33833  1.0000
  H   H7        1.0  0.54993  0.19006  0.32986  1.0000
  H   H8        1.0  0.74537  0.42189  0.35101  1.0000
  H   H9        1.0  0.80765  0.45391  0.35104  1.0000
  H   H10       1.0  0.67213  0.41995  0.32926  1.0000
  H   H11       1.0  0.63986  0.44975  0.32994  1.0000
  C   C18       1.0  0.64775  0.35052  0.33948  1.0000
  N   N4        1.0  0.68327  0.36817  0.33945  1.0000
  N   N5        1.0  0.63153  0.31506  0.33946  1.0000
  H   H12       1.0  0.57975  0.25214  0.32924  1.0000
  N   N6        1.0  0.57044  0.41984  0.34040  1.0000
  C   C19       1.0  0.47520  0.51720  0.27733  1.0000
  C   C20       1.0  0.45856  0.53690  0.28936  1.0000
  H   H13       1.0  0.47801  0.51036  0.21395  1.0000
  H   H14       1.0  0.45018  0.54414  0.23398  1.0000
  C   C21       1.0  0.55244  0.46094  0.31322  1.0000
  C   C22       1.0  0.55956  0.49205  0.26901  1.0000
  C   C23       1.0  0.53806  0.50670  0.28098  1.0000
  H   H15       1.0  0.58089  0.50479  0.22825  1.0000
  H   H16       1.0  0.54476  0.52974  0.24930  1.0000
  C   C24       1.0  0.57503  0.44783  0.30183  1.0000
  H   H17       1.0  0.59571  0.46070  0.26227  1.0000
  C   C25       1.0  0.48253  0.95796  0.27733  1.0000
  C   C26       1.0  0.46285  0.92162  0.28934  1.0000
  H   H18       1.0  0.48935  0.96760  0.21397  1.0000
  H   H19       1.0  0.45556  0.90600  0.23394  1.0000
  C   C27       1.0  0.53874  0.09144  0.31322  1.0000
  C   C28       1.0  0.50762  0.06744  0.26904  1.0000
  C   C29       1.0  0.49299  0.03130  0.28100  1.0000
  H   H20       1.0  0.49487  0.07602  0.22829  1.0000
  H   H21       1.0  0.46995  0.01495  0.24935  1.0000
  C   C30       1.0  0.55184  0.12714  0.30184  1.0000
  H   H22       1.0  0.53893  0.13494  0.26236  1.0000
  C   C31       1.0  0.04174  0.52449  0.27733  1.0000
  C   C32       1.0  0.07808  0.54114  0.28934  1.0000
  H   H23       1.0  0.03209  0.52168  0.21396  1.0000
  H   H24       1.0  0.09370  0.54952  0.23395  1.0000
  C   C33       1.0  0.90825  0.44720  0.31327  1.0000
  C   C34       1.0  0.93226  0.44010  0.26907  1.0000
  C   C35       1.0  0.96840  0.46160  0.28104  1.0000
  H   H25       1.0  0.92367  0.41877  0.22828  1.0000
  H   H26       1.0  0.98474  0.45492  0.24931  1.0000
  C   C36       1.0  0.87255  0.42460  0.30188  1.0000
  H   H27       1.0  0.86475  0.40389  0.26246  1.0000
  C   C37       1.0  0.25994  0.63321  0.32941  1.0000
  C   C38       1.0  0.37302  0.73975  0.32945  1.0000
  C   C39       1.0  0.41352  0.81431  0.33726  1.0000
  C   C40       1.0  0.37665  0.79705  0.33819  1.0000
  C   C41       1.0  0.35679  0.76040  0.33459  1.0000
  C   C42       1.0  0.24225  0.65254  0.32665  1.0000
  C   C43       1.0  0.20554  0.63577  0.32960  1.0000
  C   C44       1.0  0.18538  0.59916  0.33715  1.0000
  C   C45       1.0  0.42015  0.62304  0.33820  1.0000
  C   C46       1.0  0.40337  0.64291  0.33459  1.0000
  H   H28       1.0  0.36399  0.81106  0.34098  1.0000
  H   H29       1.0  0.33017  0.74905  0.33607  1.0000
  H   H30       1.0  0.25586  0.67920  0.32227  1.0000
  H   H31       1.0  0.19364  0.65053  0.32750  1.0000
  H   H32       1.0  0.44683  0.63571  0.34099  1.0000
  H   H33       1.0  0.41863  0.66953  0.33606  1.0000
  C   C47       1.0  0.29715  0.65016  0.32762  1.0000
  N   N7        1.0  0.31725  0.68556  0.32779  1.0000
  C   C48       1.0  0.35276  0.70255  0.32765  1.0000
  N   N8        1.0  0.15080  0.58435  0.33849  1.0000
  N   N9        1.0  0.43329  0.84889  0.33856  1.0000
  C   C49       1.0  0.73977  0.37128  0.33935  1.0000
  C   C50       1.0  0.63127  0.25993  0.33936  1.0000
  C   C51       1.0  0.59527  0.18519  0.33818  1.0000
  C   C52       1.0  0.63191  0.20459  0.34602  1.0000
  C   C53       1.0  0.64964  0.24135  0.34579  1.0000
  C   C54       1.0  0.75958  0.35418  0.33336  1.0000
  C   C55       1.0  0.79630  0.37316  0.33301  1.0000
  C   C56       1.0  0.81450  0.41000  0.33822  1.0000
  C   C57       1.0  0.57242  0.36777  0.34610  1.0000
  C   C58       1.0  0.59145  0.35004  0.34585  1.0000
  H   H34       1.0  0.64603  0.19206  0.35107  1.0000
  H   H35       1.0  0.67628  0.25433  0.35106  1.0000
  H   H36       1.0  0.74755  0.32755  0.32923  1.0000
  H   H37       1.0  0.80962  0.35980  0.32987  1.0000
  H   H38       1.0  0.54577  0.35365  0.35118  1.0000
  H   H39       1.0  0.57780  0.32341  0.35110  1.0000
  C   C59       1.0  0.70252  0.35194  0.33946  1.0000
  N   N10       1.0  0.68464  0.31642  0.33943  1.0000
  C   C60       1.0  0.64917  0.29718  0.33947  1.0000
  N   N11       1.0  0.84915  0.42922  0.34030  1.0000
  N   N12       1.0  0.57984  0.15055  0.34028  1.0000
  C   C61       1.0  0.45493  0.54787  0.37535  1.0000
  C   C62       1.0  0.46797  0.53820  0.45014  1.0000
  C   C63       1.0  0.48469  0.51833  0.43682  1.0000
  C   C64       1.0  0.48878  0.50785  0.35079  1.0000
  C   C65       1.0  0.50862  0.49085  0.33778  1.0000
  C   C66       1.0  0.50079  0.45939  0.38229  1.0000
  C   C67       1.0  0.52269  0.44486  0.36926  1.0000
  H   H40       1.0  0.51670  0.42225  0.40206  1.0000
  H   H41       1.0  0.49515  0.51264  0.49075  1.0000
  N   N13       1.0  0.47083  0.44256  0.43746  1.0000
  N   N14       1.0  0.46439  0.54871  0.53694  1.0000
  O   O1        1.0  0.47880  0.43988  0.51631  1.0000
  O   O2        1.0  0.49359  0.56772  0.57297  1.0000
  O   O3        1.0  0.44948  0.41260  0.40890  1.0000
  O   O4        1.0  0.44661  0.52281  0.58639  1.0000
  C   C68       1.0  0.44164  0.57027  0.38445  1.0000
  H   H42       1.0  0.45321  0.59007  0.42718  1.0000
  C   C69       1.0  0.45183  0.90700  0.37531  1.0000
  C   C70       1.0  0.46151  0.92970  0.45012  1.0000
  C   C71       1.0  0.48141  0.96629  0.43683  1.0000
  C   C72       1.0  0.49188  0.98087  0.35082  1.0000
  C   C73       1.0  0.50885  0.01771  0.33782  1.0000
  C   C74       1.0  0.54032  0.04135  0.38230  1.0000
  C   C75       1.0  0.55483  0.07778  0.36926  1.0000
  H   H43       1.0  0.57744  0.09442  0.40207  1.0000
  H   H44       1.0  0.48707  0.98244  0.49076  1.0000
  N   N15       1.0  0.55716  0.02824  0.43749  1.0000
  N   N16       1.0  0.45098  0.91561  0.53691  1.0000
  O   O5        1.0  0.55983  0.03890  0.51633  1.0000
  O   O6        1.0  0.43198  0.92581  0.57293  1.0000
  O   O7        1.0  0.58712  0.03687  0.40892  1.0000
  O   O8        1.0  0.47687  0.92371  0.58639  1.0000
  C   C76       1.0  0.42943  0.87132  0.38440  1.0000
  H   H45       1.0  0.40964  0.86309  0.42716  1.0000
  C   C77       1.0  0.09269  0.54478  0.37532  1.0000
  C   C78       1.0  0.07000  0.53174  0.45012  1.0000
  C   C79       1.0  0.03340  0.51501  0.43683  1.0000
  C   C80       1.0  0.01883  0.51091  0.35081  1.0000
  C   C81       1.0  0.98199  0.49106  0.33781  1.0000
  C   C82       1.0  0.95835  0.49887  0.38233  1.0000
  C   C83       1.0  0.92192  0.47695  0.36932  1.0000
  H   H46       1.0  0.90529  0.48293  0.40213  1.0000
  H   H47       1.0  0.01726  0.50455  0.49076  1.0000
  N   N17       1.0  0.97147  0.52883  0.43749  1.0000
  N   N18       1.0  0.08409  0.53532  0.53692  1.0000
  O   O9        1.0  0.96082  0.52085  0.51635  1.0000
  O   O10       1.0  0.07391  0.50614  0.57295  1.0000
  O   O11       1.0  0.96283  0.55016  0.40894  1.0000
  O   O12       1.0  0.07596  0.55310  0.58637  1.0000
  C   C84       1.0  0.12838  0.55807  0.38439  1.0000
  H   H48       1.0  0.13662  0.54651  0.42714  1.0000
