data_image0
_chemical_formula_structural       C4H2N2H2C4NC7NC35H21C21H18C16H16C2H2C2H2C4H2C2H2C2H2C4H2C18H17C3NC3NC2NC5NC34H24C3NC3NC5NC5NC36H26C5H3CH3C5H3CH3C3H3CH3C5H3CH3C5H3CH3C3H3CH3
_chemical_formula_sum              "C252 H174 N12"
_cell_length_a       58.6311
_cell_length_b       58.6311
_cell_length_c       14.9577
_cell_angle_alpha    89.7736
_cell_angle_beta     90.2264
_cell_angle_gamma    120

_space_group_name_H-M_alt    "P 1"
_space_group_IT_number       1

loop_
  _space_group_symop_operation_xyz
  'x, y, z'

loop_
  _atom_site_type_symbol
  _atom_site_label
  _atom_site_symmetry_multiplicity
  _atom_site_fract_x
  _atom_site_fract_y
  _atom_site_fract_z
  _atom_site_occupancy
  C   C1        1.0  0.02080  0.48666  0.31524  1.0000
  C   C2        1.0  0.01222  0.50486  0.32504  1.0000
  C   C3        1.0  0.01195  0.60290  0.32314  1.0000
  C   C4        1.0  0.02061  0.62972  0.31314  1.0000
  H   H1        1.0  0.00941  0.46665  0.31025  1.0000
  H   H2        1.0  0.00927  0.63837  0.30663  1.0000
  N   N1        1.0  0.03444  0.52876  0.32907  1.0000
  N   N2        1.0  0.03417  0.60124  0.32904  1.0000
  H   H3        1.0  0.03443  0.54487  0.34065  1.0000
  H   H4        1.0  0.03419  0.58512  0.34086  1.0000
  C   C5        1.0  0.04799  0.50030  0.31343  1.0000
  C   C6        1.0  0.05665  0.52711  0.32320  1.0000
  C   C7        1.0  0.98543  0.49839  0.33094  1.0000
  C   C8        1.0  0.97680  0.51709  0.33433  1.0000
  N   N3        1.0  0.99155  0.54361  0.32839  1.0000
  C   C9        1.0  0.97664  0.55524  0.33235  1.0000
  C   C10       1.0  0.95064  0.53482  0.34155  1.0000
  C   C11       1.0  0.95072  0.51133  0.34231  1.0000
  C   C12       1.0  0.98511  0.58255  0.32714  1.0000
  C   C13       1.0  0.05639  0.62514  0.32490  1.0000
  C   C14       1.0  0.04779  0.64335  0.31495  1.0000
  C   C15       1.0  0.08318  0.63162  0.33094  1.0000
  N   N4        1.0  0.07706  0.58640  0.32849  1.0000
  C   C16       1.0  0.09198  0.57477  0.33242  1.0000
  C   C17       1.0  0.11799  0.59518  0.34154  1.0000
  C   C18       1.0  0.11791  0.61867  0.34234  1.0000
  C   C19       1.0  0.08350  0.54746  0.32709  1.0000
  C   C20       1.0  0.10341  0.54020  0.32467  1.0000
  C   C21       1.0  0.11932  0.54547  0.24802  1.0000
  C   C22       1.0  0.14040  0.54042  0.24816  1.0000
  C   C23       1.0  0.14583  0.52948  0.32420  1.0000
  C   C24       1.0  0.16820  0.52601  0.32639  1.0000
  C   C25       1.0  0.21596  0.54452  0.31291  1.0000
  C   C26       1.0  0.19355  0.54734  0.30674  1.0000
  C   C27       1.0  0.10292  0.65878  0.33319  1.0000
  C   C28       1.0  0.11345  0.67306  0.25321  1.0000
  C   C29       1.0  0.13402  0.69943  0.25583  1.0000
  C   C30       1.0  0.14487  0.71215  0.33824  1.0000
  C   C31       1.0  0.16674  0.73843  0.34087  1.0000
  C   C32       1.0  0.16737  0.75875  0.28751  1.0000
  C   C33       1.0  0.18909  0.78455  0.29018  1.0000
  C   C34       1.0  0.21088  0.79083  0.34642  1.0000
  C   C35       1.0  0.96522  0.58986  0.32498  1.0000
  C   C36       1.0  0.92323  0.60121  0.32448  1.0000
  C   C37       1.0  0.92827  0.59007  0.24865  1.0000
  C   C38       1.0  0.94914  0.58471  0.24852  1.0000
  C   C39       1.0  0.90117  0.60518  0.32649  1.0000
  C   C40       1.0  0.87560  0.58415  0.30727  1.0000
  C   C41       1.0  0.85351  0.58749  0.31324  1.0000
  C   C42       1.0  0.85632  0.61204  0.33770  1.0000
  C   C43       1.0  0.96568  0.47123  0.33319  1.0000
  C   C44       1.0  0.95483  0.45715  0.25320  1.0000
  C   C45       1.0  0.93405  0.43087  0.25581  1.0000
  C   C46       1.0  0.92330  0.41805  0.33823  1.0000
  C   C47       1.0  0.90113  0.39196  0.34088  1.0000
  C   C48       1.0  0.85632  0.33995  0.34620  1.0000
  C   C49       1.0  0.87787  0.34595  0.28960  1.0000
  C   C50       1.0  0.89991  0.37156  0.28701  1.0000
  H   H5        1.0  0.87775  0.33163  0.25035  1.0000
  H   H6        1.0  0.91532  0.37507  0.24626  1.0000
  H   H7        1.0  0.92612  0.42151  0.19659  1.0000
  H   H8        1.0  0.96162  0.46612  0.19253  1.0000
  H   H9        1.0  0.05933  0.49166  0.30704  1.0000
  H   H10       1.0  0.93425  0.49317  0.34791  1.0000
  H   H11       1.0  0.93410  0.53637  0.34702  1.0000
  H   H12       1.0  0.95209  0.57636  0.19298  1.0000
  H   H13       1.0  0.91669  0.58567  0.19277  1.0000
  H   H14       1.0  0.05917  0.66337  0.30987  1.0000
  H   H15       1.0  0.13439  0.63682  0.34784  1.0000
  H   H16       1.0  0.10653  0.66419  0.19255  1.0000
  H   H17       1.0  0.14170  0.70896  0.19659  1.0000
  H   H18       1.0  0.18879  0.79881  0.25131  1.0000
  H   H19       1.0  0.15178  0.75503  0.24703  1.0000
  H   H20       1.0  0.19604  0.56544  0.29060  1.0000
  H   H21       1.0  0.23407  0.56058  0.30057  1.0000
  H   H22       1.0  0.15188  0.54497  0.19221  1.0000
  H   H23       1.0  0.11615  0.55376  0.19243  1.0000
  H   H24       1.0  0.87272  0.56592  0.29151  1.0000
  H   H25       1.0  0.83522  0.57164  0.30127  1.0000
  C   C51       1.0  0.54576  0.52046  0.33502  1.0000
  C   C52       1.0  0.56618  0.51487  0.34403  1.0000
  C   C53       1.0  0.58967  0.53843  0.34479  1.0000
  C   C54       1.0  0.55557  0.67311  0.25070  1.0000
  C   C55       1.0  0.56061  0.69922  0.25084  1.0000
  C   C56       1.0  0.55648  0.77054  0.31550  1.0000
  C   C57       1.0  0.55366  0.74533  0.30941  1.0000
  C   C58       1.0  0.42798  0.53958  0.25539  1.0000
  C   C59       1.0  0.40160  0.53378  0.25773  1.0000
  C   C60       1.0  0.34227  0.50773  0.28891  1.0000
  C   C61       1.0  0.31646  0.50364  0.29124  1.0000
  C   C62       1.0  0.31014  0.51907  0.34709  1.0000
  C   C63       1.0  0.51089  0.43743  0.25129  1.0000
  C   C64       1.0  0.51624  0.46366  0.25117  1.0000
  C   C65       1.0  0.51684  0.39057  0.30990  1.0000
  C   C66       1.0  0.51351  0.36513  0.31585  1.0000
  C   C67       1.0  0.64381  0.59696  0.25544  1.0000
  C   C68       1.0  0.67009  0.60244  0.25778  1.0000
  C   C69       1.0  0.76107  0.61543  0.34694  1.0000
  C   C70       1.0  0.75502  0.63112  0.29069  1.0000
  C   C71       1.0  0.72941  0.62757  0.28849  1.0000
  H   H26       1.0  0.76931  0.64542  0.25139  1.0000
  H   H27       1.0  0.72586  0.63955  0.24793  1.0000
  H   H28       1.0  0.67942  0.60404  0.19844  1.0000
  H   H29       1.0  0.63480  0.59493  0.19487  1.0000
  H   H30       1.0  0.60783  0.54010  0.35023  1.0000
  H   H31       1.0  0.52457  0.47506  0.19563  1.0000
  H   H32       1.0  0.51526  0.43036  0.19538  1.0000
  H   H33       1.0  0.46261  0.47000  0.30993  1.0000
  H   H34       1.0  0.43688  0.54160  0.19481  1.0000
  H   H35       1.0  0.39210  0.53197  0.19839  1.0000
  H   H36       1.0  0.30224  0.48914  0.25236  1.0000
  H   H37       1.0  0.34602  0.49590  0.24873  1.0000
  H   H38       1.0  0.53557  0.72976  0.29325  1.0000
  H   H39       1.0  0.54041  0.77261  0.30323  1.0000
  H   H40       1.0  0.55606  0.70627  0.19487  1.0000
  H   H41       1.0  0.54726  0.66174  0.19515  1.0000
  H   H42       1.0  0.53507  0.40596  0.29407  1.0000
  H   H43       1.0  0.52936  0.36272  0.30381  1.0000
  C   C72       1.0  0.42803  0.98176  0.25181  1.0000
  C   C73       1.0  0.40191  0.96068  0.25147  1.0000
  C   C74       1.0  0.33048  0.88504  0.31474  1.0000
  C   C75       1.0  0.35571  0.90745  0.30916  1.0000
  C   C76       1.0  0.56144  0.98762  0.25779  1.0000
  C   C77       1.0  0.56727  0.96706  0.26021  1.0000
  C   C78       1.0  0.59329  0.93370  0.29153  1.0000
  C   C79       1.0  0.59736  0.91197  0.29388  1.0000
  C   C80       1.0  0.66342  0.17264  0.25194  1.0000
  C   C81       1.0  0.63720  0.15177  0.25233  1.0000
  C   C82       1.0  0.71039  0.22538  0.30953  1.0000
  C   C83       1.0  0.73585  0.24747  0.31497  1.0000
  C   C84       1.0  0.50402  0.14608  0.25778  1.0000
  C   C85       1.0  0.49851  0.16685  0.26018  1.0000
  C   C86       1.0  0.46988  0.22306  0.29327  1.0000
  C   C87       1.0  0.47342  0.20101  0.29103  1.0000
  H   H44       1.0  0.45558  0.22314  0.25400  1.0000
  H   H45       1.0  0.46142  0.18555  0.25048  1.0000
  H   H46       1.0  0.49693  0.17472  0.20087  1.0000
  H   H47       1.0  0.50603  0.13922  0.19718  1.0000
  H   H48       1.0  0.62571  0.14875  0.19697  1.0000
  H   H49       1.0  0.67040  0.18414  0.19586  1.0000
  H   H50       1.0  0.55941  0.99460  0.19719  1.0000
  H   H51       1.0  0.56903  0.95944  0.20090  1.0000
  H   H52       1.0  0.61186  0.91231  0.25499  1.0000
  H   H53       1.0  0.60511  0.94934  0.25129  1.0000
  H   H54       1.0  0.37131  0.90497  0.29330  1.0000
  H   H55       1.0  0.32843  0.86694  0.30235  1.0000
  H   H56       1.0  0.39495  0.94926  0.19534  1.0000
  H   H57       1.0  0.43947  0.98498  0.19643  1.0000
  H   H58       1.0  0.69498  0.22825  0.29415  1.0000
  H   H59       1.0  0.73824  0.26575  0.30297  1.0000
  C   C88       1.0  0.27514  0.52138  0.26914  1.0000
  C   C89       1.0  0.25161  0.52201  0.26747  1.0000
  H   H60       1.0  0.24586  0.52640  0.20812  1.0000
  H   H61       1.0  0.28599  0.52593  0.21156  1.0000
  C   C90       1.0  0.57961  0.85296  0.27181  1.0000
  C   C91       1.0  0.57898  0.82880  0.27013  1.0000
  H   H62       1.0  0.57459  0.81878  0.21078  1.0000
  H   H63       1.0  0.57505  0.85937  0.21422  1.0000
  C   C92       1.0  0.23336  0.81670  0.34860  1.0000
  C   C93       1.0  0.24815  0.82590  0.26923  1.0000
  C   C94       1.0  0.27231  0.84943  0.26807  1.0000
  C   C95       1.0  0.28302  0.86427  0.34674  1.0000
  H   H64       1.0  0.28244  0.85525  0.20894  1.0000
  H   H65       1.0  0.24184  0.81510  0.21151  1.0000
  C   C96       1.0  0.79539  0.61220  0.26901  1.0000
  C   C97       1.0  0.81861  0.61099  0.26733  1.0000
  H   H66       1.0  0.82405  0.60637  0.20808  1.0000
  H   H67       1.0  0.78441  0.60779  0.21155  1.0000
  C   C98       1.0  0.48882  0.28240  0.27158  1.0000
  C   C99       1.0  0.49001  0.30683  0.26992  1.0000
  H   H68       1.0  0.49463  0.31701  0.21068  1.0000
  H   H69       1.0  0.49322  0.27595  0.21411  1.0000
  C   C100      1.0  0.83352  0.31430  0.34825  1.0000
  C   C101      1.0  0.81850  0.30555  0.26902  1.0000
  C   C102      1.0  0.79407  0.28232  0.26787  1.0000
  C   C103      1.0  0.78331  0.26736  0.34642  1.0000
  H   H70       1.0  0.78378  0.27682  0.20883  1.0000
  H   H71       1.0  0.82485  0.31647  0.21143  1.0000
  C   C104      1.0  0.09182  0.61291  0.33448  1.0000
  C   C105      1.0  0.12935  0.52348  0.39985  1.0000
  C   C106      1.0  0.10858  0.52901  0.40045  1.0000
  C   C107      1.0  0.16591  0.50160  0.35065  1.0000
  C   C108      1.0  0.18829  0.49862  0.35497  1.0000
  C   C109      1.0  0.21370  0.52019  0.33793  1.0000
  C   C110      1.0  0.13397  0.69771  0.41805  1.0000
  C   C111      1.0  0.11325  0.67143  0.41571  1.0000
  C   C112      1.0  0.21055  0.77049  0.39844  1.0000
  C   C113      1.0  0.18877  0.74479  0.39620  1.0000
  C   C114      1.0  0.96040  0.60118  0.40062  1.0000
  C   C115      1.0  0.93984  0.60702  0.40000  1.0000
  C   C116      1.0  0.88196  0.63332  0.35426  1.0000
  C   C117      1.0  0.90401  0.62982  0.35011  1.0000
  C   C118      1.0  0.95548  0.45846  0.41571  1.0000
  C   C119      1.0  0.93455  0.43228  0.41806  1.0000
  C   C120      1.0  0.87933  0.38588  0.39657  1.0000
  C   C121      1.0  0.85723  0.36038  0.39872  1.0000
  H   H72       1.0  0.84168  0.35688  0.43880  1.0000
  H   H73       1.0  0.87904  0.40018  0.43477  1.0000
  H   H74       1.0  0.92751  0.42369  0.47905  1.0000
  H   H75       1.0  0.96283  0.46833  0.47461  1.0000
  H   H76       1.0  0.97152  0.60480  0.45731  1.0000
  H   H77       1.0  0.93639  0.61453  0.45675  1.0000
  H   H78       1.0  0.13454  0.59363  0.34690  1.0000
  H   H79       1.0  0.10609  0.66144  0.47461  1.0000
  H   H80       1.0  0.14107  0.70623  0.47904  1.0000
  H   H81       1.0  0.18947  0.73057  0.43403  1.0000
  H   H82       1.0  0.22628  0.77421  0.43824  1.0000
  H   H83       1.0  0.09761  0.52535  0.45732  1.0000
  H   H84       1.0  0.13309  0.51615  0.45678  1.0000
  H   H85       1.0  0.18597  0.48068  0.37252  1.0000
  H   H86       1.0  0.14784  0.48569  0.36461  1.0000
  H   H87       1.0  0.92226  0.64552  0.36370  1.0000
  H   H88       1.0  0.88467  0.65140  0.37137  1.0000
  C   C122      1.0  0.61434  0.63324  0.31796  1.0000
  C   C123      1.0  0.60071  0.64680  0.31622  1.0000
  C   C124      1.0  0.57390  0.62864  0.32599  1.0000
  N   N5        1.0  0.57224  0.60476  0.33183  1.0000
  C   C125      1.0  0.59614  0.60644  0.32769  1.0000
  C   C126      1.0  0.60261  0.58611  0.33357  1.0000
  C   C127      1.0  0.58391  0.55876  0.33704  1.0000
  N   N6        1.0  0.55739  0.54701  0.33117  1.0000
  C   C128      1.0  0.51844  0.50164  0.32989  1.0000
  C   C129      1.0  0.49809  0.50813  0.32611  1.0000
  N   N7        1.0  0.49975  0.53200  0.33196  1.0000
  C   C130      1.0  0.47584  0.53032  0.32778  1.0000
  C   C131      1.0  0.45763  0.50353  0.31814  1.0000
  C   C132      1.0  0.47126  0.48998  0.31638  1.0000
  C   C133      1.0  0.46938  0.55064  0.33351  1.0000
  C   C134      1.0  0.48808  0.57798  0.33694  1.0000
  N   N8        1.0  0.51460  0.58974  0.33117  1.0000
  C   C135      1.0  0.52623  0.61628  0.33502  1.0000
  C   C136      1.0  0.50581  0.62187  0.34398  1.0000
  C   C137      1.0  0.48233  0.59831  0.34468  1.0000
  C   C138      1.0  0.55354  0.63512  0.32984  1.0000
  C   C139      1.0  0.56081  0.66230  0.32741  1.0000
  C   C140      1.0  0.57153  0.71544  0.32687  1.0000
  C   C141      1.0  0.57751  0.70481  0.40259  1.0000
  C   C142      1.0  0.57200  0.67852  0.40318  1.0000
  C   C143      1.0  0.57500  0.74128  0.32905  1.0000
  C   C144      1.0  0.59941  0.76335  0.35330  1.0000
  C   C145      1.0  0.60238  0.78870  0.35763  1.0000
  C   C146      1.0  0.58080  0.79256  0.34058  1.0000
  C   C147      1.0  0.44221  0.54322  0.33551  1.0000
  C   C148      1.0  0.38883  0.53177  0.33998  1.0000
  C   C149      1.0  0.40323  0.53521  0.41995  1.0000
  C   C150      1.0  0.42951  0.54077  0.41789  1.0000
  C   C151      1.0  0.36255  0.52735  0.34230  1.0000
  C   C152      1.0  0.33044  0.53901  0.39915  1.0000
  C   C153      1.0  0.35614  0.54295  0.39725  1.0000
  C   C154      1.0  0.51114  0.47444  0.32771  1.0000
  C   C155      1.0  0.49984  0.45814  0.40338  1.0000
  C   C156      1.0  0.49400  0.43175  0.40275  1.0000
  C   C157      1.0  0.49978  0.42110  0.32715  1.0000
  C   C158      1.0  0.49581  0.39507  0.32915  1.0000
  C   C159      1.0  0.48896  0.34334  0.34032  1.0000
  C   C160      1.0  0.46768  0.34766  0.35689  1.0000
  C   C161      1.0  0.47118  0.37323  0.35279  1.0000
  C   C162      1.0  0.62977  0.59351  0.33557  1.0000
  C   C163      1.0  0.64259  0.59588  0.41796  1.0000
  C   C164      1.0  0.68295  0.60430  0.34005  1.0000
  C   C165      1.0  0.66877  0.60111  0.42002  1.0000
  C   C166      1.0  0.70906  0.60824  0.34239  1.0000
  C   C167      1.0  0.71519  0.59238  0.39776  1.0000
  C   C168      1.0  0.74068  0.59578  0.39953  1.0000
  H   H89       1.0  0.74422  0.58363  0.43936  1.0000
  H   H90       1.0  0.70091  0.57769  0.43597  1.0000
  H   H91       1.0  0.67740  0.60251  0.48092  1.0000
  H   H92       1.0  0.63275  0.59319  0.47695  1.0000
  H   H93       1.0  0.63435  0.64187  0.31295  1.0000
  H   H94       1.0  0.60934  0.66679  0.30984  1.0000
  H   H95       1.0  0.55613  0.58862  0.34340  1.0000
  H   H96       1.0  0.51590  0.54815  0.34299  1.0000
  H   H97       1.0  0.56463  0.49676  0.34938  1.0000
  H   H98       1.0  0.49627  0.46555  0.46014  1.0000
  H   H99       1.0  0.48654  0.42069  0.45953  1.0000
  H   H100      1.0  0.43762  0.49491  0.31308  1.0000
  H   H101      1.0  0.50737  0.63997  0.34928  1.0000
  H   H102      1.0  0.46417  0.59662  0.35005  1.0000
  H   H103      1.0  0.43947  0.54354  0.47688  1.0000
  H   H104      1.0  0.39467  0.53370  0.48084  1.0000
  H   H105      1.0  0.37033  0.55780  0.43515  1.0000
  H   H106      1.0  0.32669  0.55097  0.43870  1.0000
  H   H107      1.0  0.57562  0.67108  0.46010  1.0000
  H   H108      1.0  0.58485  0.71578  0.45949  1.0000
  H   H109      1.0  0.62031  0.80428  0.37519  1.0000
  H   H110      1.0  0.61532  0.76117  0.36728  1.0000
  H   H111      1.0  0.45548  0.37574  0.36645  1.0000
  H   H112      1.0  0.44961  0.33226  0.37410  1.0000
  C   C169      1.0  0.46774  0.08018  0.32035  1.0000
  C   C170      1.0  0.45419  0.05299  0.31842  1.0000
  C   C171      1.0  0.47236  0.04433  0.32804  1.0000
  N   N9        1.0  0.49623  0.06655  0.33409  1.0000
  C   C172      1.0  0.49454  0.08877  0.32999  1.0000
  C   C173      1.0  0.51487  0.11556  0.33581  1.0000
  C   C174      1.0  0.54222  0.12420  0.33920  1.0000
  N   N10       1.0  0.55398  0.10944  0.33327  1.0000
  C   C175      1.0  0.58052  0.12436  0.33704  1.0000
  C   C176      1.0  0.58612  0.15037  0.34604  1.0000
  C   C177      1.0  0.56256  0.15028  0.34690  1.0000
  C   C178      1.0  0.59935  0.11589  0.33171  1.0000
  C   C179      1.0  0.59286  0.08904  0.32786  1.0000
  N   N11       1.0  0.56900  0.06682  0.33395  1.0000
  C   C180      1.0  0.57068  0.04461  0.32982  1.0000
  C   C181      1.0  0.59746  0.05321  0.31982  1.0000
  C   C182      1.0  0.61101  0.08039  0.31790  1.0000
  C   C183      1.0  0.55038  0.01781  0.33579  1.0000
  C   C184      1.0  0.52303  0.00917  0.33914  1.0000
  N   N12       1.0  0.51127  0.02393  0.33325  1.0000
  C   C185      1.0  0.48473  0.00901  0.33691  1.0000
  C   C186      1.0  0.47915  0.98299  0.34589  1.0000
  C   C187      1.0  0.50271  0.98307  0.34682  1.0000
  C   C188      1.0  0.46589  0.01748  0.33161  1.0000
  C   C189      1.0  0.43871  0.99757  0.32875  1.0000
  C   C190      1.0  0.38558  0.95515  0.32726  1.0000
  C   C191      1.0  0.39611  0.97151  0.40321  1.0000
  C   C192      1.0  0.42240  0.99230  0.40428  1.0000
  C   C193      1.0  0.35974  0.93278  0.32891  1.0000
  C   C194      1.0  0.33763  0.93505  0.35274  1.0000
  C   C195      1.0  0.31227  0.91268  0.35648  1.0000
  C   C196      1.0  0.30842  0.88728  0.33932  1.0000
  C   C197      1.0  0.55780  0.99807  0.33787  1.0000
  C   C198      1.0  0.56926  0.95613  0.34251  1.0000
  C   C199      1.0  0.56582  0.96695  0.42242  1.0000
  C   C200      1.0  0.56025  0.98767  0.42029  1.0000
  C   C201      1.0  0.57367  0.93427  0.34490  1.0000
  C   C202      1.0  0.58192  0.89011  0.34976  1.0000
  C   C203      1.0  0.56200  0.89039  0.40183  1.0000
  C   C204      1.0  0.55808  0.91217  0.39992  1.0000
  C   C205      1.0  0.62654  0.13579  0.32907  1.0000
  C   C206      1.0  0.64296  0.14070  0.40443  1.0000
  C   C207      1.0  0.66935  0.16127  0.40332  1.0000
  C   C208      1.0  0.67987  0.17777  0.32750  1.0000
  C   C209      1.0  0.70592  0.19983  0.32895  1.0000
  C   C210      1.0  0.75768  0.24468  0.33903  1.0000
  C   C211      1.0  0.75337  0.21906  0.35572  1.0000
  C   C212      1.0  0.72779  0.19700  0.35215  1.0000
  C   C213      1.0  0.50747  0.13532  0.33787  1.0000
  C   C214      1.0  0.50513  0.14560  0.42029  1.0000
  C   C215      1.0  0.49668  0.17769  0.34249  1.0000
  C   C216      1.0  0.49988  0.16653  0.42242  1.0000
  C   C217      1.0  0.49275  0.19986  0.34487  1.0000
  C   C218      1.0  0.50862  0.22173  0.40026  1.0000
  C   C219      1.0  0.50525  0.24384  0.40204  1.0000
  C   C220      1.0  0.48559  0.24469  0.34949  1.0000
  H   H113      1.0  0.51741  0.25944  0.44187  1.0000
  H   H114      1.0  0.52332  0.22207  0.43841  1.0000
  H   H115      1.0  0.49850  0.17364  0.48334  1.0000
  H   H116      1.0  0.50782  0.13832  0.47927  1.0000
  H   H117      1.0  0.45911  0.09157  0.31533  1.0000
  H   H118      1.0  0.43421  0.04166  0.31193  1.0000
  H   H119      1.0  0.51240  0.06655  0.34505  1.0000
  H   H120      1.0  0.55288  0.06680  0.34573  1.0000
  H   H121      1.0  0.56088  0.16675  0.35234  1.0000
  H   H122      1.0  0.60423  0.16691  0.35129  1.0000
  H   H123      1.0  0.63565  0.12966  0.46133  1.0000
  H   H124      1.0  0.68050  0.16479  0.45987  1.0000
  H   H125      1.0  0.63098  0.09173  0.31120  1.0000
  H   H126      1.0  0.60609  0.04183  0.31467  1.0000
  H   H127      1.0  0.46104  0.96643  0.35109  1.0000
  H   H128      1.0  0.50440  0.96659  0.35224  1.0000
  H   H129      1.0  0.55750  0.99477  0.47925  1.0000
  H   H130      1.0  0.56733  0.95979  0.48334  1.0000
  H   H131      1.0  0.54321  0.91143  0.43774  1.0000
  H   H132      1.0  0.55002  0.87459  0.44137  1.0000
  H   H133      1.0  0.42974  0.00320  0.46133  1.0000
  H   H134      1.0  0.38505  0.96772  0.45992  1.0000
  H   H135      1.0  0.29666  0.91498  0.37371  1.0000
  H   H136      1.0  0.33980  0.95311  0.36675  1.0000
  H   H137      1.0  0.72530  0.17877  0.36588  1.0000
  H   H138      1.0  0.76880  0.21636  0.37259  1.0000
  C   C221      1.0  0.28427  0.51569  0.34881  1.0000
  C   C222      1.0  0.23670  0.51780  0.34591  1.0000
  C   C223      1.0  0.24542  0.51188  0.42767  1.0000
  C   C224      1.0  0.26881  0.50982  0.42820  1.0000
  C   C225      1.0  0.23124  0.50911  0.51377  1.0000
  H   H139      1.0  0.21592  0.51438  0.50930  1.0000
  H   H140      1.0  0.24505  0.52208  0.56436  1.0000
  H   H141      1.0  0.22207  0.48881  0.53741  1.0000
  C   C226      1.0  0.27667  0.50105  0.51129  1.0000
  H   H142      1.0  0.29263  0.49690  0.50131  1.0000
  H   H143      1.0  0.26006  0.48282  0.53629  1.0000
  H   H144      1.0  0.28292  0.51617  0.56271  1.0000
  C   C227      1.0  0.58529  0.86761  0.35148  1.0000
  C   C228      1.0  0.58319  0.81794  0.34856  1.0000
  C   C229      1.0  0.58911  0.83241  0.43033  1.0000
  C   C230      1.0  0.59117  0.85787  0.43086  1.0000
  C   C231      1.0  0.59188  0.82083  0.51642  1.0000
  H   H145      1.0  0.58661  0.80025  0.51195  1.0000
  H   H146      1.0  0.57892  0.82157  0.56702  1.0000
  H   H147      1.0  0.61219  0.83191  0.54005  1.0000
  C   C232      1.0  0.59994  0.87432  0.51396  1.0000
  H   H148      1.0  0.60409  0.89445  0.50398  1.0000
  H   H149      1.0  0.61818  0.87590  0.53894  1.0000
  H   H150      1.0  0.58482  0.86535  0.56539  1.0000
  C   C233      1.0  0.26841  0.85548  0.42819  1.0000
  C   C234      1.0  0.24295  0.83208  0.42819  1.0000
  C   C235      1.0  0.27983  0.86958  0.51455  1.0000
  H   H151      1.0  0.30042  0.88490  0.51052  1.0000
  H   H152      1.0  0.27900  0.85572  0.56511  1.0000
  H   H153      1.0  0.26870  0.87872  0.53795  1.0000
  C   C236      1.0  0.22635  0.82415  0.51093  1.0000
  H   H154      1.0  0.20623  0.80819  0.50053  1.0000
  H   H155      1.0  0.22472  0.84073  0.53591  1.0000
  H   H156      1.0  0.23522  0.81785  0.56254  1.0000
  C   C237      1.0  0.78671  0.61825  0.34853  1.0000
  C   C238      1.0  0.83365  0.61497  0.34565  1.0000
  C   C239      1.0  0.82538  0.62124  0.42726  1.0000
  C   C240      1.0  0.80232  0.62388  0.42775  1.0000
  C   C241      1.0  0.83967  0.62377  0.51329  1.0000
  H   H157      1.0  0.85465  0.61805  0.50895  1.0000
  H   H158      1.0  0.82584  0.61103  0.56422  1.0000
  H   H159      1.0  0.84928  0.64411  0.53639  1.0000
  C   C242      1.0  0.79499  0.63302  0.51062  1.0000
  H   H160      1.0  0.77930  0.63760  0.50054  1.0000
  H   H161      1.0  0.81189  0.65109  0.53514  1.0000
  H   H162      1.0  0.78857  0.61792  0.56244  1.0000
  C   C243      1.0  0.48279  0.26752  0.35110  1.0000
  C   C244      1.0  0.48604  0.31772  0.34825  1.0000
  C   C245      1.0  0.47978  0.30303  0.42986  1.0000
  C   C246      1.0  0.47715  0.27732  0.43034  1.0000
  C   C247      1.0  0.47725  0.31461  0.51590  1.0000
  H   H163      1.0  0.48296  0.33531  0.51157  1.0000
  H   H164      1.0  0.48999  0.31341  0.56682  1.0000
  H   H165      1.0  0.45691  0.30382  0.53901  1.0000
  C   C248      1.0  0.46801  0.26069  0.51321  1.0000
  H   H166      1.0  0.46344  0.24044  0.50312  1.0000
  H   H167      1.0  0.44994  0.25946  0.53774  1.0000
  H   H168      1.0  0.48312  0.26927  0.56502  1.0000
  C   C249      1.0  0.79815  0.27571  0.42774  1.0000
  C   C250      1.0  0.82385  0.29877  0.42769  1.0000
  C   C251      1.0  0.78672  0.26151  0.51402  1.0000
  H   H169      1.0  0.76600  0.24651  0.51011  1.0000
  H   H170      1.0  0.78800  0.27538  0.56491  1.0000
  H   H171      1.0  0.79754  0.25192  0.53692  1.0000
  C   C252      1.0  0.84063  0.30619  0.51022  1.0000
  H   H172      1.0  0.86086  0.32188  0.49971  1.0000
  H   H173      1.0  0.84190  0.28932  0.53475  1.0000
  H   H174      1.0  0.83214  0.31266  0.56220  1.0000
