data_image0
_chemical_formula_structural       C4HCH3C4HCH3N4C4HCH3C4HCH3N4C4HCH3C4HCH3C4HCH3C4HCH3N4C4HCH3C4HCH3N4C4HCH3C4HCH3N4C4HCH3C4HCH3CNCNCNCNCNCNCNCNCNCNCNCNCNCNCNCNCNCNCNCNCNCNCNCNCNCNCNCNCNCNCNCNCNCNCNCNCNCNCNCNCNCNCNCNCNCNCNCN5C4HCH3C4HCH3N4C4HCH3C4HCH3N8C4HCH3C4HCH3N4C4HCH3C4HCH3N4C4HCH3C4HCH3N4
_chemical_formula_sum              "C168 H96 N96"
_cell_length_a       43.5488
_cell_length_b       34.149
_cell_length_c       14.8008
_cell_angle_alpha    90
_cell_angle_beta     90
_cell_angle_gamma    90

_space_group_name_H-M_alt    "P 1"
_space_group_IT_number       1

loop_
  _space_group_symop_operation_xyz
  'x, y, z'

loop_
  _atom_site_type_symbol
  _atom_site_label
  _atom_site_symmetry_multiplicity
  _atom_site_fract_x
  _atom_site_fract_y
  _atom_site_fract_z
  _atom_site_occupancy
  C   C1        1.0  0.00631  0.96790  0.33154  1.0000
  C   C2        1.0  0.02972  0.98761  0.28363  1.0000
  C   C3        1.0  0.03044  0.02903  0.27862  1.0000
  C   C4        1.0  0.00752  0.05057  0.32616  1.0000
  H   H1        1.0  0.04594  0.97159  0.24987  1.0000
  C   C5        1.0  0.05343  0.04807  0.21861  1.0000
  H   H2        1.0  0.06631  0.02696  0.17813  1.0000
  H   H3        1.0  0.06996  0.06449  0.25854  1.0000
  H   H4        1.0  0.04188  0.06797  0.17195  1.0000
  C   C6        1.0  0.50631  0.46798  0.33219  1.0000
  C   C7        1.0  0.52996  0.48773  0.28534  1.0000
  C   C8        1.0  0.53077  0.52919  0.28045  1.0000
  C   C9        1.0  0.50771  0.55086  0.32715  1.0000
  H   H5        1.0  0.54628  0.47170  0.25206  1.0000
  C   C10       1.0  0.55406  0.54814  0.22132  1.0000
  H   H6        1.0  0.56703  0.52699  0.18118  1.0000
  H   H7        1.0  0.57046  0.56440  0.26191  1.0000
  H   H8        1.0  0.54277  0.56815  0.17433  1.0000
  N   N1        1.0  0.06139  0.21253  0.32817  1.0000
  N   N2        1.0  0.08563  0.23530  0.32870  1.0000
  N   N3        1.0  0.94959  0.80627  0.34625  1.0000
  N   N4        1.0  0.92559  0.78320  0.34780  1.0000
  C   C11       1.0  0.89603  0.22280  0.33727  1.0000
  C   C12       1.0  0.89262  0.18233  0.32080  1.0000
  C   C13       1.0  0.91850  0.15674  0.32030  1.0000
  C   C14       1.0  0.94844  0.17261  0.33694  1.0000
  H   H9        1.0  0.87109  0.17156  0.30857  1.0000
  C   C15       1.0  0.91320  0.11453  0.30102  1.0000
  H   H10       1.0  0.88911  0.10777  0.28775  1.0000
  H   H11       1.0  0.92034  0.09693  0.35885  1.0000
  H   H12       1.0  0.92629  0.10578  0.24147  1.0000
  C   C16       1.0  0.11380  0.79392  0.33598  1.0000
  C   C17       1.0  0.11720  0.83401  0.31558  1.0000
  C   C18       1.0  0.09138  0.85965  0.31409  1.0000
  C   C19       1.0  0.06151  0.84418  0.33398  1.0000
  H   H13       1.0  0.13868  0.84446  0.30123  1.0000
  C   C20       1.0  0.09677  0.90140  0.29015  1.0000
  H   H14       1.0  0.12071  0.90759  0.27361  1.0000
  H   H15       1.0  0.09051  0.92016  0.34690  1.0000
  H   H16       1.0  0.08301  0.90919  0.23119  1.0000
  N   N5        1.0  0.56106  0.71359  0.32894  1.0000
  N   N6        1.0  0.58506  0.73676  0.32951  1.0000
  N   N7        1.0  0.44989  0.30572  0.34660  1.0000
  N   N8        1.0  0.42607  0.28232  0.34810  1.0000
  C   C21       1.0  0.39689  0.72434  0.33568  1.0000
  C   C22       1.0  0.39326  0.68388  0.31930  1.0000
  C   C23       1.0  0.41894  0.65801  0.31890  1.0000
  C   C24       1.0  0.44892  0.67360  0.33574  1.0000
  H   H17       1.0  0.37166  0.67323  0.30744  1.0000
  C   C25       1.0  0.41340  0.61583  0.29982  1.0000
  H   H18       1.0  0.38929  0.60931  0.28626  1.0000
  H   H19       1.0  0.42035  0.59823  0.35783  1.0000
  H   H20       1.0  0.42653  0.60688  0.24049  1.0000
  C   C26       1.0  0.61295  0.29270  0.33415  1.0000
  C   C27       1.0  0.61660  0.33280  0.31388  1.0000
  C   C28       1.0  0.59099  0.35872  0.31248  1.0000
  C   C29       1.0  0.56107  0.34354  0.33250  1.0000
  H   H21       1.0  0.63815  0.34311  0.29997  1.0000
  C   C30       1.0  0.59663  0.40045  0.28887  1.0000
  H   H22       1.0  0.62060  0.40640  0.27211  1.0000
  H   H23       1.0  0.59058  0.41918  0.34586  1.0000
  H   H24       1.0  0.58286  0.40850  0.23014  1.0000
  C   C31       1.0  0.38332  0.08140  0.30834  1.0000
  C   C32       1.0  0.39804  0.10973  0.25366  1.0000
  C   C33       1.0  0.39023  0.14974  0.25938  1.0000
  C   C34       1.0  0.36665  0.16041  0.32101  1.0000
  H   H25       1.0  0.41543  0.10135  0.21127  1.0000
  C   C35       1.0  0.40649  0.17838  0.20048  1.0000
  H   H26       1.0  0.42101  0.16419  0.15003  1.0000
  H   H27       1.0  0.42122  0.19719  0.24135  1.0000
  H   H28       1.0  0.38982  0.19641  0.16438  1.0000
  C   C36       1.0  0.63114  0.93810  0.29722  1.0000
  C   C37       1.0  0.61776  0.91035  0.23799  1.0000
  C   C38       1.0  0.62472  0.87013  0.24496  1.0000
  C   C39       1.0  0.64637  0.85876  0.31175  1.0000
  H   H29       1.0  0.60144  0.91926  0.19257  1.0000
  C   C40       1.0  0.60940  0.84188  0.18304  1.0000
  H   H30       1.0  0.59616  0.85643  0.13012  1.0000
  H   H31       1.0  0.59360  0.82335  0.22103  1.0000
  H   H32       1.0  0.62657  0.82352  0.15005  1.0000
  N   N9        1.0  0.65914  0.13073  0.32874  1.0000
  N   N10       1.0  0.65136  0.09367  0.32690  1.0000
  N   N11       1.0  0.35042  0.88654  0.32347  1.0000
  N   N12       1.0  0.35772  0.92380  0.32298  1.0000
  C   C41       1.0  0.88419  0.58134  0.31143  1.0000
  C   C42       1.0  0.89906  0.60990  0.25762  1.0000
  C   C43       1.0  0.89175  0.64998  0.26546  1.0000
  C   C44       1.0  0.86846  0.66046  0.32819  1.0000
  H   H33       1.0  0.91619  0.60159  0.21427  1.0000
  C   C45       1.0  0.90811  0.67883  0.20740  1.0000
  H   H34       1.0  0.92267  0.66484  0.15673  1.0000
  H   H35       1.0  0.92282  0.69739  0.24889  1.0000
  H   H36       1.0  0.89151  0.69707  0.17159  1.0000
  C   C46       1.0  0.13087  0.43751  0.29895  1.0000
  C   C47       1.0  0.11762  0.40957  0.23991  1.0000
  C   C48       1.0  0.12394  0.36927  0.24910  1.0000
  C   C49       1.0  0.14493  0.35803  0.31773  1.0000
  H   H37       1.0  0.10175  0.41847  0.19310  1.0000
  C   C50       1.0  0.10873  0.34085  0.18738  1.0000
  H   H38       1.0  0.09575  0.35523  0.13366  1.0000
  H   H39       1.0  0.09271  0.32262  0.22536  1.0000
  H   H40       1.0  0.12595  0.32221  0.15544  1.0000
  N   N13       1.0  0.15802  0.63079  0.32414  1.0000
  N   N14       1.0  0.15061  0.59364  0.32363  1.0000
  N   N15       1.0  0.85162  0.38604  0.31934  1.0000
  N   N16       1.0  0.85854  0.42338  0.32025  1.0000
  C   C51       1.0  0.53708  0.00562  0.30633  1.0000
  C   C52       1.0  0.52196  0.97229  0.27149  1.0000
  C   C53       1.0  0.48961  0.97046  0.26979  1.0000
  C   C54       1.0  0.47329  0.00332  0.30400  1.0000
  H   H41       1.0  0.53448  0.94905  0.24802  1.0000
  C   C55       1.0  0.47431  0.93547  0.23016  1.0000
  H   H42       1.0  0.49054  0.91557  0.19769  1.0000
  H   H43       1.0  0.45771  0.94461  0.17905  1.0000
  H   H44       1.0  0.46248  0.91906  0.28291  1.0000
  C   C56       1.0  0.03715  0.50517  0.30310  1.0000
  C   C57       1.0  0.02212  0.47166  0.26886  1.0000
  C   C58       1.0  0.98980  0.46973  0.26732  1.0000
  C   C59       1.0  0.97348  0.50270  0.30094  1.0000
  H   H45       1.0  0.03469  0.44835  0.24592  1.0000
  C   C60       1.0  0.97453  0.43450  0.22869  1.0000
  H   H46       1.0  0.99078  0.41454  0.19648  1.0000
  H   H47       1.0  0.95784  0.44335  0.17757  1.0000
  H   H48       1.0  0.96282  0.41827  0.28195  1.0000
  N   N17       1.0  0.23639  0.23443  0.35400  1.0000
  N   N18       1.0  0.26614  0.22855  0.35048  1.0000
  N   N19       1.0  0.77467  0.78329  0.35672  1.0000
  N   N20       1.0  0.74500  0.78948  0.35193  1.0000
  C   C61       1.0  0.72260  0.25385  0.32092  1.0000
  C   C62       1.0  0.73391  0.28834  0.28075  1.0000
  C   C63       1.0  0.76595  0.29524  0.27401  1.0000
  C   C64       1.0  0.78666  0.26685  0.31085  1.0000
  H   H49       1.0  0.71867  0.30843  0.25570  1.0000
  C   C65       1.0  0.77637  0.33123  0.22609  1.0000
  H   H50       1.0  0.75791  0.34532  0.18817  1.0000
  H   H51       1.0  0.79447  0.32393  0.17792  1.0000
  H   H52       1.0  0.78505  0.35254  0.27464  1.0000
  C   C66       1.0  0.28719  0.76276  0.32055  1.0000
  C   C67       1.0  0.27590  0.72784  0.28235  1.0000
  C   C68       1.0  0.24387  0.72079  0.27628  1.0000
  C   C69       1.0  0.22313  0.74949  0.31171  1.0000
  H   H53       1.0  0.29115  0.70756  0.25825  1.0000
  C   C70       1.0  0.23347  0.68433  0.23029  1.0000
  H   H54       1.0  0.25194  0.66983  0.19325  1.0000
  H   H55       1.0  0.21539  0.69114  0.18165  1.0000
  H   H56       1.0  0.22475  0.66353  0.27994  1.0000
  C   C71       1.0  0.97746  0.15204  0.33903  1.0000
  N   N21       1.0  0.97936  0.11222  0.33306  1.0000
  C   C72       1.0  0.00643  0.09227  0.33296  1.0000
  N   N22       1.0  0.03256  0.11378  0.34198  1.0000
  C   C73       1.0  0.03285  0.15346  0.35005  1.0000
  N   N23       1.0  0.00483  0.17170  0.34704  1.0000
  C   C74       1.0  0.03274  0.86519  0.33785  1.0000
  N   N24       1.0  0.03168  0.90491  0.33270  1.0000
  C   C75       1.0  0.00540  0.92629  0.33846  1.0000
  N   N25       1.0  0.97873  0.90616  0.35000  1.0000
  C   C76       1.0  0.97745  0.86629  0.35512  1.0000
  N   N26       1.0  0.00497  0.84682  0.34871  1.0000
  C   C77       1.0  0.47774  0.65262  0.33841  1.0000
  N   N27       1.0  0.47959  0.61274  0.33300  1.0000
  C   C78       1.0  0.50665  0.59269  0.33367  1.0000
  N   N28       1.0  0.53277  0.61427  0.34279  1.0000
  C   C79       1.0  0.53305  0.65402  0.35026  1.0000
  N   N29       1.0  0.50507  0.67222  0.34662  1.0000
  C   C80       1.0  0.53253  0.36497  0.33693  1.0000
  N   N30       1.0  0.53154  0.40474  0.33225  1.0000
  C   C81       1.0  0.50531  0.42624  0.33869  1.0000
  N   N31       1.0  0.47863  0.40607  0.35046  1.0000
  C   C82       1.0  0.47735  0.36614  0.35517  1.0000
  N   N32       1.0  0.50479  0.34668  0.34808  1.0000
  C   C83       1.0  0.39408  0.97519  0.35268  1.0000
  N   N33       1.0  0.37925  0.01019  0.34109  1.0000
  C   C84       1.0  0.39537  0.04300  0.31650  1.0000
  N   N34       1.0  0.42622  0.03973  0.30481  1.0000
  C   C85       1.0  0.44127  0.00546  0.31314  1.0000
  N   N35       1.0  0.42476  0.97393  0.33782  1.0000
  C   C86       1.0  0.61472  0.04226  0.35253  1.0000
  N   N36       1.0  0.63167  0.00923  0.33584  1.0000
  C   C87       1.0  0.61754  0.97544  0.30863  1.0000
  N   N37       1.0  0.58660  0.97586  0.30002  1.0000
  C   C88       1.0  0.56918  0.00777  0.31482  1.0000
  N   N38       1.0  0.58375  0.04071  0.34134  1.0000
  C   C89       1.0  0.89448  0.47475  0.35166  1.0000
  N   N39       1.0  0.87973  0.50993  0.34198  1.0000
  C   C90       1.0  0.89591  0.54273  0.31758  1.0000
  N   N40       1.0  0.92663  0.53925  0.30430  1.0000
  C   C91       1.0  0.94153  0.50483  0.31076  1.0000
  N   N41       1.0  0.92505  0.47331  0.33530  1.0000
  C   C92       1.0  0.11449  0.54205  0.35067  1.0000
  N   N42       1.0  0.13152  0.50894  0.33552  1.0000
  C   C93       1.0  0.11749  0.47505  0.30845  1.0000
  N   N43       1.0  0.08661  0.47544  0.29882  1.0000
  C   C94       1.0  0.06917  0.50741  0.31209  1.0000
  N   N44       1.0  0.08359  0.54045  0.33838  1.0000
  C   C95       1.0  0.13878  0.25181  0.35781  1.0000
  N   N45       1.0  0.16909  0.24374  0.37636  1.0000
  C   C96       1.0  0.19110  0.27260  0.37835  1.0000
  N   N46       1.0  0.18196  0.30950  0.35796  1.0000
  C   C97       1.0  0.15265  0.31887  0.33791  1.0000
  N   N47       1.0  0.13158  0.28967  0.33880  1.0000
  C   C98       1.0  0.87196  0.76707  0.36572  1.0000
  N   N48       1.0  0.84130  0.77439  0.38039  1.0000
  C   C99       1.0  0.81978  0.74490  0.38128  1.0000
  N   N49       1.0  0.82981  0.70810  0.36331  1.0000
  C   C100      1.0  0.85953  0.69941  0.34683  1.0000
  N   N50       1.0  0.87996  0.72927  0.34919  1.0000
  C   C101      1.0  0.87148  0.25091  0.33752  1.0000
  N   N51       1.0  0.84087  0.24309  0.32319  1.0000
  C   C102      1.0  0.81910  0.27226  0.32125  1.0000
  N   N52       1.0  0.82891  0.30929  0.33738  1.0000
  C   C103      1.0  0.85854  0.31861  0.35350  1.0000
  N   N53       1.0  0.87925  0.28897  0.35225  1.0000
  C   C104      1.0  0.13835  0.76589  0.33748  1.0000
  N   N54       1.0  0.16899  0.77348  0.32302  1.0000
  C   C105      1.0  0.19069  0.74421  0.32236  1.0000
  N   N55       1.0  0.18074  0.70733  0.33983  1.0000
  C   C106      1.0  0.15106  0.69830  0.35627  1.0000
  N   N56       1.0  0.13047  0.72801  0.35350  1.0000
  C   C107      1.0  0.63837  0.75332  0.35655  1.0000
  N   N57       1.0  0.66856  0.74418  0.37220  1.0000
  C   C108      1.0  0.69150  0.77169  0.36796  1.0000
  N   N58       1.0  0.68343  0.80912  0.34785  1.0000
  C   C109      1.0  0.65394  0.81949  0.33149  1.0000
  N   N59       1.0  0.63201  0.79128  0.33629  1.0000
  C   C110      1.0  0.37231  0.26626  0.36409  1.0000
  N   N60       1.0  0.34187  0.27473  0.37695  1.0000
  C   C111      1.0  0.31941  0.24659  0.37191  1.0000
  N   N61       1.0  0.32818  0.20924  0.35329  1.0000
  C   C112      1.0  0.35798  0.19951  0.33954  1.0000
  N   N62       1.0  0.37935  0.22834  0.34565  1.0000
  C   C113      1.0  0.37224  0.75223  0.33781  1.0000
  N   N63       1.0  0.34183  0.74326  0.32609  1.0000
  C   C114      1.0  0.31913  0.77110  0.32998  1.0000
  N   N64       1.0  0.32768  0.80875  0.34591  1.0000
  C   C115      1.0  0.35742  0.81911  0.35855  1.0000
  N   N65       1.0  0.37905  0.79048  0.35367  1.0000
  C   C116      1.0  0.63760  0.26492  0.33773  1.0000
  N   N66       1.0  0.66804  0.27364  0.32569  1.0000
  C   C117      1.0  0.69064  0.24573  0.33102  1.0000
  N   N67       1.0  0.68195  0.20826  0.34865  1.0000
  C   C118      1.0  0.65215  0.19822  0.36183  1.0000
  N   N68       1.0  0.63067  0.22689  0.35527  1.0000
  N   N69       1.0  0.98531  0.02929  0.36869  1.0000
  N   N70       1.0  0.98459  0.99085  0.37102  1.0000
  N   N71       1.0  0.48529  0.52954  0.36868  1.0000
  N   N72       1.0  0.48449  0.49106  0.37085  1.0000
  C   C119      1.0  0.11401  0.22411  0.35768  1.0000
  C   C120      1.0  0.11611  0.18536  0.39008  1.0000
  C   C121      1.0  0.08996  0.16031  0.39131  1.0000
  C   C122      1.0  0.06133  0.17471  0.35716  1.0000
  H   H57       1.0  0.13670  0.17572  0.41495  1.0000
  C   C123      1.0  0.09314  0.12097  0.43339  1.0000
  H   H58       1.0  0.11542  0.11672  0.46577  1.0000
  H   H59       1.0  0.09071  0.09832  0.38221  1.0000
  H   H60       1.0  0.07554  0.11697  0.48508  1.0000
  C   C124      1.0  0.89640  0.79527  0.36560  1.0000
  C   C125      1.0  0.89312  0.83560  0.38389  1.0000
  C   C126      1.0  0.91897  0.86122  0.38262  1.0000
  C   C127      1.0  0.94869  0.84549  0.36237  1.0000
  H   H61       1.0  0.87171  0.84625  0.39839  1.0000
  C   C128      1.0  0.91399  0.90326  0.40441  1.0000
  H   H62       1.0  0.89030  0.90966  0.42349  1.0000
  H   H63       1.0  0.91945  0.92126  0.34568  1.0000
  H   H64       1.0  0.92862  0.91181  0.46096  1.0000
  N   N73       1.0  0.94940  0.21194  0.35194  1.0000
  N   N74       1.0  0.92537  0.23501  0.35209  1.0000
  N   N75       1.0  0.06051  0.80515  0.35248  1.0000
  N   N76       1.0  0.08452  0.78204  0.35328  1.0000
  C   C129      1.0  0.61348  0.72587  0.35860  1.0000
  C   C130      1.0  0.61589  0.68711  0.39089  1.0000
  C   C131      1.0  0.58999  0.66169  0.39204  1.0000
  C   C132      1.0  0.56131  0.67569  0.35766  1.0000
  H   H65       1.0  0.63658  0.67764  0.41541  1.0000
  C   C133      1.0  0.59348  0.62236  0.43392  1.0000
  H   H66       1.0  0.61579  0.61840  0.46641  1.0000
  H   H67       1.0  0.59129  0.59977  0.38262  1.0000
  H   H68       1.0  0.57588  0.61805  0.48550  1.0000
  C   C134      1.0  0.39688  0.29421  0.36606  1.0000
  C   C135      1.0  0.39337  0.33452  0.38449  1.0000
  C   C136      1.0  0.41902  0.36041  0.38322  1.0000
  C   C137      1.0  0.44878  0.34497  0.36269  1.0000
  H   H69       1.0  0.37189  0.34504  0.39867  1.0000
  C   C138      1.0  0.41381  0.40241  0.40493  1.0000
  H   H70       1.0  0.39008  0.40859  0.42407  1.0000
  H   H71       1.0  0.41915  0.42044  0.34615  1.0000
  H   H72       1.0  0.42840  0.41111  0.46142  1.0000
  N   N77       1.0  0.45011  0.71297  0.35049  1.0000
  N   N78       1.0  0.42626  0.73637  0.35056  1.0000
  N   N79       1.0  0.55982  0.30447  0.35071  1.0000
  N   N80       1.0  0.58364  0.28101  0.35146  1.0000
  N   N81       1.0  0.35255  0.13122  0.36822  1.0000
  N   N82       1.0  0.36040  0.09421  0.36307  1.0000
  N   N83       1.0  0.65941  0.88739  0.36323  1.0000
  N   N84       1.0  0.65206  0.92455  0.35753  1.0000
  C   C139      1.0  0.62693  0.07953  0.37345  1.0000
  C   C140      1.0  0.61025  0.10633  0.42722  1.0000
  C   C141      1.0  0.61813  0.14643  0.42913  1.0000
  C   C142      1.0  0.64349  0.15870  0.37559  1.0000
  H   H73       1.0  0.59133  0.09684  0.46203  1.0000
  C   C143      1.0  0.59988  0.17359  0.48663  1.0000
  H   H74       1.0  0.58413  0.15812  0.53160  1.0000
  H   H75       1.0  0.58618  0.19301  0.44425  1.0000
  H   H76       1.0  0.61522  0.19107  0.52877  1.0000
  C   C144      1.0  0.38084  0.93854  0.37417  1.0000
  C   C145      1.0  0.39688  0.91188  0.43011  1.0000
  C   C146      1.0  0.38978  0.87155  0.42987  1.0000
  C   C147      1.0  0.36556  0.85881  0.37256  1.0000
  H   H77       1.0  0.41513  0.92169  0.46755  1.0000
  C   C148      1.0  0.40773  0.84459  0.48867  1.0000
  H   H78       1.0  0.42280  0.86021  0.53532  1.0000
  H   H79       1.0  0.42211  0.82556  0.44728  1.0000
  H   H80       1.0  0.39215  0.82667  0.52904  1.0000
  N   N85       1.0  0.85419  0.63109  0.37438  1.0000
  N   N86       1.0  0.86163  0.59402  0.36749  1.0000
  N   N87       1.0  0.15795  0.38681  0.36883  1.0000
  N   N88       1.0  0.15110  0.42404  0.36131  1.0000
  C   C149      1.0  0.12641  0.57947  0.37110  1.0000
  C   C150      1.0  0.10945  0.60643  0.42369  1.0000
  C   C151      1.0  0.11692  0.64666  0.42403  1.0000
  C   C152      1.0  0.14215  0.65889  0.36998  1.0000
  H   H81       1.0  0.09065  0.59687  0.45898  1.0000
  C   C153      1.0  0.09843  0.67397  0.48043  1.0000
  H   H82       1.0  0.08246  0.65865  0.52499  1.0000
  H   H83       1.0  0.08494  0.69329  0.43721  1.0000
  H   H84       1.0  0.11360  0.69155  0.52290  1.0000
  C   C154      1.0  0.88131  0.43807  0.37270  1.0000
  C   C155      1.0  0.89751  0.41132  0.42803  1.0000
  C   C156      1.0  0.89089  0.37086  0.42590  1.0000
  C   C157      1.0  0.86693  0.35819  0.36765  1.0000
  H   H85       1.0  0.91566  0.42113  0.46586  1.0000
  C   C158      1.0  0.90900  0.34371  0.48376  1.0000
  H   H86       1.0  0.92420  0.35918  0.53037  1.0000
  H   H87       1.0  0.92328  0.32487  0.44162  1.0000
  H   H88       1.0  0.89354  0.32563  0.52411  1.0000
  N   N89       1.0  0.48956  0.03465  0.33425  1.0000
  N   N90       1.0  0.51948  0.03582  0.33554  1.0000
  N   N91       1.0  0.98968  0.53417  0.33063  1.0000
  N   N92       1.0  0.01957  0.53544  0.33184  1.0000
  C   C159      1.0  0.28744  0.25442  0.38189  1.0000
  C   C160      1.0  0.27590  0.28857  0.42303  1.0000
  C   C161      1.0  0.24382  0.29521  0.42913  1.0000
  C   C162      1.0  0.22336  0.26692  0.39084  1.0000
  H   H89       1.0  0.29098  0.30861  0.44909  1.0000
  C   C163      1.0  0.23300  0.33082  0.47774  1.0000
  H   H90       1.0  0.25120  0.34471  0.51710  1.0000
  H   H91       1.0  0.21462  0.32312  0.52466  1.0000
  H   H92       1.0  0.22454  0.35242  0.42955  1.0000
  C   C164      1.0  0.72333  0.76329  0.37952  1.0000
  C   C165      1.0  0.73441  0.72827  0.41770  1.0000
  C   C166      1.0  0.76642  0.72118  0.42490  1.0000
  C   C167      1.0  0.78731  0.75003  0.39096  1.0000
  H   H93       1.0  0.71903  0.70787  0.44057  1.0000
  C   C168      1.0  0.77662  0.68447  0.47018  1.0000
  H   H94       1.0  0.75797  0.66974  0.50597  1.0000
  H   H95       1.0  0.79445  0.69102  0.51978  1.0000
  H   H96       1.0  0.78560  0.66396  0.42026  1.0000
  N   N93       1.0  0.77382  0.23402  0.34668  1.0000
  N   N94       1.0  0.74410  0.22791  0.35078  1.0000
  N   N95       1.0  0.23596  0.78270  0.34568  1.0000
  N   N96       1.0  0.26566  0.78893  0.34922  1.0000
