data_image0
_chemical_formula_structural       C4HC2O2C7H4NHC7H4NHC6HC5HCH3C2O2CN3HCN3HC4HC2O2C7H4NHC7H4NHC6HC5HCH3C2O2CN3HCN3HC4HC2O2C7H4NHC7H4NHC6HC5HCH3C2O2CN3HCN3HC4HC2O2C7H4NHC7H4NHC6HC5HCH3C2O2CN3HCN3H
_chemical_formula_sum              "C144 H72 O16 N32"
_cell_length_a       30.582
_cell_length_b       30.582
_cell_length_c       14.988
_cell_angle_alpha    90
_cell_angle_beta     90
_cell_angle_gamma    90

_space_group_name_H-M_alt    "P 1"
_space_group_IT_number       1

loop_
  _space_group_symop_operation_xyz
  'x, y, z'

loop_
  _atom_site_type_symbol
  _atom_site_label
  _atom_site_symmetry_multiplicity
  _atom_site_fract_x
  _atom_site_fract_y
  _atom_site_fract_z
  _atom_site_occupancy
  C   C1        1.0  0.46583  0.09282  0.28049  1.0000
  C   C2        1.0  0.49656  0.06152  0.31334  1.0000
  C   C3        1.0  0.00268  0.44145  0.37638  1.0000
  C   C4        1.0  0.03296  0.41091  0.41323  1.0000
  H   H1        1.0  0.44846  0.39802  0.36711  1.0000
  C   C5        1.0  0.47375  0.13847  0.26741  1.0000
  C   C6        1.0  0.02652  0.36483  0.41388  1.0000
  O   O1        1.0  0.44565  0.16114  0.21435  1.0000
  O   O2        1.0  0.04635  0.34144  0.47941  1.0000
  C   C7        1.0  0.01077  0.23221  0.23084  1.0000
  C   C8        1.0  0.01151  0.27907  0.23588  1.0000
  C   C9        1.0  0.01344  0.29936  0.32178  1.0000
  C   C10       1.0  0.01296  0.30312  0.15468  1.0000
  C   C11       1.0  0.01535  0.28209  0.07156  1.0000
  C   C12       1.0  0.01794  0.23646  0.06751  1.0000
  C   C13       1.0  0.01626  0.21190  0.14644  1.0000
  H   H2        1.0  0.01359  0.33642  0.15352  1.0000
  H   H3        1.0  0.01731  0.30011  0.01418  1.0000
  H   H4        1.0  0.02169  0.22117  0.00729  1.0000
  H   H5        1.0  0.02037  0.17886  0.14108  1.0000
  N   N1        1.0  0.01487  0.34355  0.33696  1.0000
  H   H6        1.0  0.00959  0.36227  0.28604  1.0000
  C   C14       1.0  0.26858  0.98994  0.23063  1.0000
  C   C15       1.0  0.22173  0.98924  0.23571  1.0000
  C   C16       1.0  0.20144  0.98740  0.32162  1.0000
  C   C17       1.0  0.19765  0.98781  0.15452  1.0000
  C   C18       1.0  0.21866  0.98534  0.07140  1.0000
  C   C19       1.0  0.26429  0.98272  0.06732  1.0000
  C   C20       1.0  0.28887  0.98438  0.14622  1.0000
  H   H7        1.0  0.16436  0.98726  0.15339  1.0000
  H   H8        1.0  0.20063  0.98347  0.01403  1.0000
  H   H9        1.0  0.27957  0.97897  0.00709  1.0000
  H   H10       1.0  0.32190  0.98028  0.14084  1.0000
  N   N2        1.0  0.15726  0.98602  0.33685  1.0000
  H   H11       1.0  0.13852  0.99122  0.28591  1.0000
  C   C21       1.0  0.48356  0.01727  0.33005  1.0000
  C   C22       1.0  0.43933  0.00421  0.31327  1.0000
  C   C23       1.0  0.40802  0.03490  0.28028  1.0000
  C   C24       1.0  0.42330  0.07747  0.26072  1.0000
  C   C25       1.0  0.42898  0.45942  0.32367  1.0000
  C   C26       1.0  0.04134  0.07191  0.32371  1.0000
  H   H12       1.0  0.40073  0.10002  0.24039  1.0000
  C   C27       1.0  0.01496  0.48590  0.36186  1.0000
  C   C28       1.0  0.07465  0.42626  0.43919  1.0000
  C   C29       1.0  0.08996  0.46796  0.41322  1.0000
  C   C30       1.0  0.05939  0.49823  0.37640  1.0000
  C   C31       1.0  0.45921  0.42927  0.35682  1.0000
  H   H13       1.0  0.09721  0.40378  0.46058  1.0000
  C   C32       1.0  0.07153  0.04170  0.35682  1.0000
  H   H14       1.0  0.39926  0.44723  0.30555  1.0000
  H   H15       1.0  0.10279  0.05247  0.36702  1.0000
  H   H16       1.0  0.05351  0.10163  0.30553  1.0000
  C   C33       1.0  0.36242  0.02687  0.26694  1.0000
  C   C34       1.0  0.13604  0.47456  0.41391  1.0000
  O   O3        1.0  0.33973  0.05499  0.21397  1.0000
  O   O4        1.0  0.15925  0.45485  0.47986  1.0000
  C   C35       1.0  0.00815  0.20727  0.31108  1.0000
  N   N3        1.0  0.01449  0.27211  0.39326  1.0000
  N   N4        1.0  0.01188  0.22975  0.38870  1.0000
  N   N5        1.0  0.00038  0.16339  0.32014  1.0000
  H   H17       1.0  0.00703  0.15072  0.37838  1.0000
  C   C36       1.0  0.29354  0.99258  0.31085  1.0000
  N   N6        1.0  0.22871  0.98633  0.39309  1.0000
  N   N7        1.0  0.27107  0.98890  0.38849  1.0000
  N   N8        1.0  0.33742  0.00041  0.31982  1.0000
  H   H18       1.0  0.35003  0.99367  0.37812  1.0000
  C   C37       1.0  0.46583  0.59282  0.28049  1.0000
  C   C38       1.0  0.49656  0.56152  0.31334  1.0000
  C   C39       1.0  0.00268  0.94145  0.37638  1.0000
  C   C40       1.0  0.03296  0.91091  0.41323  1.0000
  H   H19       1.0  0.44846  0.89801  0.36711  1.0000
  C   C41       1.0  0.47375  0.63847  0.26741  1.0000
  C   C42       1.0  0.02652  0.86483  0.41388  1.0000
  O   O5        1.0  0.44565  0.66114  0.21435  1.0000
  O   O6        1.0  0.04635  0.84144  0.47941  1.0000
  C   C43       1.0  0.01077  0.73221  0.23084  1.0000
  C   C44       1.0  0.01151  0.77907  0.23588  1.0000
  C   C45       1.0  0.01344  0.79937  0.32178  1.0000
  C   C46       1.0  0.01296  0.80312  0.15468  1.0000
  C   C47       1.0  0.01535  0.78210  0.07156  1.0000
  C   C48       1.0  0.01794  0.73647  0.06751  1.0000
  C   C49       1.0  0.01626  0.71190  0.14644  1.0000
  H   H20       1.0  0.01359  0.83642  0.15352  1.0000
  H   H21       1.0  0.01731  0.80011  0.01418  1.0000
  H   H22       1.0  0.02169  0.72118  0.00729  1.0000
  H   H23       1.0  0.02037  0.67886  0.14108  1.0000
  N   N9        1.0  0.01487  0.84355  0.33696  1.0000
  H   H24       1.0  0.00959  0.86227  0.28604  1.0000
  C   C50       1.0  0.26858  0.48994  0.23063  1.0000
  C   C51       1.0  0.22173  0.48925  0.23571  1.0000
  C   C52       1.0  0.20144  0.48739  0.32162  1.0000
  C   C53       1.0  0.19765  0.48781  0.15452  1.0000
  C   C54       1.0  0.21866  0.48534  0.07140  1.0000
  C   C55       1.0  0.26429  0.48272  0.06732  1.0000
  C   C56       1.0  0.28887  0.48438  0.14622  1.0000
  H   H25       1.0  0.16436  0.48725  0.15339  1.0000
  H   H26       1.0  0.20063  0.48346  0.01403  1.0000
  H   H27       1.0  0.27957  0.47897  0.00709  1.0000
  H   H28       1.0  0.32190  0.48028  0.14084  1.0000
  N   N10       1.0  0.15726  0.48602  0.33685  1.0000
  H   H29       1.0  0.13852  0.49122  0.28591  1.0000
  C   C57       1.0  0.48356  0.51727  0.33005  1.0000
  C   C58       1.0  0.43933  0.50421  0.31327  1.0000
  C   C59       1.0  0.40802  0.53490  0.28028  1.0000
  C   C60       1.0  0.42330  0.57747  0.26072  1.0000
  C   C61       1.0  0.42898  0.95942  0.32367  1.0000
  C   C62       1.0  0.04134  0.57191  0.32371  1.0000
  H   H30       1.0  0.40073  0.60002  0.24039  1.0000
  C   C63       1.0  0.01496  0.98590  0.36186  1.0000
  C   C64       1.0  0.07465  0.92626  0.43919  1.0000
  C   C65       1.0  0.08996  0.96796  0.41322  1.0000
  C   C66       1.0  0.05939  0.99823  0.37640  1.0000
  C   C67       1.0  0.45921  0.92927  0.35682  1.0000
  H   H31       1.0  0.09721  0.90378  0.46058  1.0000
  C   C68       1.0  0.07153  0.54170  0.35682  1.0000
  H   H32       1.0  0.39926  0.94723  0.30555  1.0000
  H   H33       1.0  0.10279  0.55248  0.36702  1.0000
  H   H34       1.0  0.05351  0.60163  0.30553  1.0000
  C   C69       1.0  0.36242  0.52687  0.26694  1.0000
  C   C70       1.0  0.13604  0.97456  0.41391  1.0000
  O   O7        1.0  0.33973  0.55499  0.21397  1.0000
  O   O8        1.0  0.15925  0.95485  0.47986  1.0000
  C   C71       1.0  0.00815  0.70728  0.31108  1.0000
  N   N11       1.0  0.01449  0.77211  0.39326  1.0000
  N   N12       1.0  0.01188  0.72975  0.38870  1.0000
  N   N13       1.0  0.00038  0.66339  0.32014  1.0000
  H   H35       1.0  0.00703  0.65072  0.37838  1.0000
  C   C72       1.0  0.29354  0.49257  0.31085  1.0000
  N   N14       1.0  0.22871  0.48633  0.39309  1.0000
  N   N15       1.0  0.27107  0.48890  0.38849  1.0000
  N   N16       1.0  0.33742  0.50041  0.31982  1.0000
  H   H36       1.0  0.35003  0.49368  0.37812  1.0000
  C   C73       1.0  0.96583  0.09282  0.28049  1.0000
  C   C74       1.0  0.99656  0.06152  0.31334  1.0000
  C   C75       1.0  0.50267  0.44145  0.37638  1.0000
  C   C76       1.0  0.53296  0.41091  0.41323  1.0000
  H   H37       1.0  0.94846  0.39802  0.36711  1.0000
  C   C77       1.0  0.97374  0.13847  0.26741  1.0000
  C   C78       1.0  0.52652  0.36483  0.41388  1.0000
  O   O9        1.0  0.94566  0.16114  0.21435  1.0000
  O   O10       1.0  0.54635  0.34144  0.47941  1.0000
  C   C79       1.0  0.51077  0.23221  0.23084  1.0000
  C   C80       1.0  0.51151  0.27907  0.23588  1.0000
  C   C81       1.0  0.51344  0.29936  0.32178  1.0000
  C   C82       1.0  0.51296  0.30312  0.15468  1.0000
  C   C83       1.0  0.51536  0.28209  0.07156  1.0000
  C   C84       1.0  0.51794  0.23646  0.06751  1.0000
  C   C85       1.0  0.51626  0.21190  0.14644  1.0000
  H   H38       1.0  0.51359  0.33642  0.15352  1.0000
  H   H39       1.0  0.51731  0.30011  0.01418  1.0000
  H   H40       1.0  0.52169  0.22117  0.00729  1.0000
  H   H41       1.0  0.52037  0.17886  0.14108  1.0000
  N   N17       1.0  0.51487  0.34355  0.33696  1.0000
  H   H42       1.0  0.50959  0.36227  0.28604  1.0000
  C   C86       1.0  0.76858  0.98994  0.23063  1.0000
  C   C87       1.0  0.72172  0.98924  0.23571  1.0000
  C   C88       1.0  0.70144  0.98740  0.32162  1.0000
  C   C89       1.0  0.69766  0.98781  0.15452  1.0000
  C   C90       1.0  0.71866  0.98534  0.07140  1.0000
  C   C91       1.0  0.76429  0.98272  0.06732  1.0000
  C   C92       1.0  0.78887  0.98438  0.14622  1.0000
  H   H43       1.0  0.66436  0.98726  0.15339  1.0000
  H   H44       1.0  0.70063  0.98347  0.01403  1.0000
  H   H45       1.0  0.77957  0.97897  0.00709  1.0000
  H   H46       1.0  0.82191  0.98028  0.14084  1.0000
  N   N18       1.0  0.65726  0.98602  0.33685  1.0000
  H   H47       1.0  0.63853  0.99122  0.28591  1.0000
  C   C93       1.0  0.98356  0.01727  0.33005  1.0000
  C   C94       1.0  0.93934  0.00421  0.31327  1.0000
  C   C95       1.0  0.90802  0.03490  0.28028  1.0000
  C   C96       1.0  0.92330  0.07747  0.26072  1.0000
  C   C97       1.0  0.92898  0.45942  0.32367  1.0000
  C   C98       1.0  0.54134  0.07191  0.32371  1.0000
  H   H48       1.0  0.90073  0.10002  0.24039  1.0000
  C   C99       1.0  0.51496  0.48590  0.36186  1.0000
  C   C100      1.0  0.57465  0.42626  0.43919  1.0000
  C   C101      1.0  0.58996  0.46796  0.41322  1.0000
  C   C102      1.0  0.55939  0.49823  0.37640  1.0000
  C   C103      1.0  0.95921  0.42927  0.35682  1.0000
  H   H49       1.0  0.59721  0.40378  0.46058  1.0000
  C   C104      1.0  0.57153  0.04170  0.35682  1.0000
  H   H50       1.0  0.89926  0.44723  0.30555  1.0000
  H   H51       1.0  0.60279  0.05247  0.36702  1.0000
  H   H52       1.0  0.55351  0.10163  0.30553  1.0000
  C   C105      1.0  0.86242  0.02687  0.26694  1.0000
  C   C106      1.0  0.63604  0.47456  0.41391  1.0000
  O   O11       1.0  0.83973  0.05499  0.21397  1.0000
  O   O12       1.0  0.65926  0.45485  0.47986  1.0000
  C   C107      1.0  0.50815  0.20727  0.31108  1.0000
  N   N19       1.0  0.51450  0.27211  0.39326  1.0000
  N   N20       1.0  0.51188  0.22975  0.38870  1.0000
  N   N21       1.0  0.50037  0.16339  0.32014  1.0000
  H   H53       1.0  0.50703  0.15072  0.37838  1.0000
  C   C108      1.0  0.79354  0.99258  0.31085  1.0000
  N   N22       1.0  0.72871  0.98633  0.39309  1.0000
  N   N23       1.0  0.77107  0.98890  0.38849  1.0000
  N   N24       1.0  0.83742  0.00041  0.31982  1.0000
  H   H54       1.0  0.85003  0.99367  0.37812  1.0000
  C   C109      1.0  0.96583  0.59282  0.28049  1.0000
  C   C110      1.0  0.99656  0.56152  0.31334  1.0000
  C   C111      1.0  0.50267  0.94145  0.37638  1.0000
  C   C112      1.0  0.53296  0.91091  0.41323  1.0000
  H   H55       1.0  0.94846  0.89801  0.36711  1.0000
  C   C113      1.0  0.97374  0.63847  0.26741  1.0000
  C   C114      1.0  0.52652  0.86483  0.41388  1.0000
  O   O13       1.0  0.94566  0.66114  0.21435  1.0000
  O   O14       1.0  0.54635  0.84144  0.47941  1.0000
  C   C115      1.0  0.51077  0.73221  0.23084  1.0000
  C   C116      1.0  0.51151  0.77907  0.23588  1.0000
  C   C117      1.0  0.51344  0.79937  0.32178  1.0000
  C   C118      1.0  0.51296  0.80312  0.15468  1.0000
  C   C119      1.0  0.51536  0.78210  0.07156  1.0000
  C   C120      1.0  0.51794  0.73647  0.06751  1.0000
  C   C121      1.0  0.51626  0.71190  0.14644  1.0000
  H   H56       1.0  0.51359  0.83642  0.15352  1.0000
  H   H57       1.0  0.51731  0.80011  0.01418  1.0000
  H   H58       1.0  0.52169  0.72118  0.00729  1.0000
  H   H59       1.0  0.52037  0.67886  0.14108  1.0000
  N   N25       1.0  0.51487  0.84355  0.33696  1.0000
  H   H60       1.0  0.50959  0.86227  0.28604  1.0000
  C   C122      1.0  0.76858  0.48994  0.23063  1.0000
  C   C123      1.0  0.72172  0.48925  0.23571  1.0000
  C   C124      1.0  0.70144  0.48739  0.32162  1.0000
  C   C125      1.0  0.69766  0.48781  0.15452  1.0000
  C   C126      1.0  0.71866  0.48534  0.07140  1.0000
  C   C127      1.0  0.76429  0.48272  0.06732  1.0000
  C   C128      1.0  0.78887  0.48438  0.14622  1.0000
  H   H61       1.0  0.66436  0.48725  0.15339  1.0000
  H   H62       1.0  0.70063  0.48346  0.01403  1.0000
  H   H63       1.0  0.77957  0.47897  0.00709  1.0000
  H   H64       1.0  0.82191  0.48028  0.14084  1.0000
  N   N26       1.0  0.65726  0.48602  0.33685  1.0000
  H   H65       1.0  0.63853  0.49122  0.28591  1.0000
  C   C129      1.0  0.98356  0.51727  0.33005  1.0000
  C   C130      1.0  0.93934  0.50421  0.31327  1.0000
  C   C131      1.0  0.90802  0.53490  0.28028  1.0000
  C   C132      1.0  0.92330  0.57747  0.26072  1.0000
  C   C133      1.0  0.92898  0.95942  0.32367  1.0000
  C   C134      1.0  0.54134  0.57191  0.32371  1.0000
  H   H66       1.0  0.90073  0.60002  0.24039  1.0000
  C   C135      1.0  0.51496  0.98590  0.36186  1.0000
  C   C136      1.0  0.57465  0.92626  0.43919  1.0000
  C   C137      1.0  0.58996  0.96796  0.41322  1.0000
  C   C138      1.0  0.55939  0.99823  0.37640  1.0000
  C   C139      1.0  0.95921  0.92927  0.35682  1.0000
  H   H67       1.0  0.59721  0.90378  0.46058  1.0000
  C   C140      1.0  0.57153  0.54170  0.35682  1.0000
  H   H68       1.0  0.89926  0.94723  0.30555  1.0000
  H   H69       1.0  0.60279  0.55248  0.36702  1.0000
  H   H70       1.0  0.55351  0.60163  0.30553  1.0000
  C   C141      1.0  0.86242  0.52687  0.26694  1.0000
  C   C142      1.0  0.63604  0.97456  0.41391  1.0000
  O   O15       1.0  0.83973  0.55499  0.21397  1.0000
  O   O16       1.0  0.65926  0.95485  0.47986  1.0000
  C   C143      1.0  0.50815  0.70728  0.31108  1.0000
  N   N27       1.0  0.51450  0.77211  0.39326  1.0000
  N   N28       1.0  0.51188  0.72975  0.38870  1.0000
  N   N29       1.0  0.50037  0.66339  0.32014  1.0000
  H   H71       1.0  0.50703  0.65072  0.37838  1.0000
  C   C144      1.0  0.79354  0.49257  0.31085  1.0000
  N   N30       1.0  0.72871  0.48633  0.39309  1.0000
  N   N31       1.0  0.77107  0.48890  0.38849  1.0000
  N   N32       1.0  0.83742  0.50041  0.31982  1.0000
  H   H72       1.0  0.85003  0.49368  0.37812  1.0000
