data_image0
_chemical_formula_structural       C8HC7HCH4C4O3C2H2C3HCOH3NHC2H2C3HCOH3NHC2H2C3HCOH3NHC2H2C3HCOH3NHC2H2C3HCOH3NHC2H2C3HCOH3NHOC8HC7HCH4C4O4C8HC7HCH4C4O4C7H3COH3NHC7H3COH3NHC7H3COH3NHC7H3COH3NHC7H3COH3NHC7H3COH3NH
_chemical_formula_sum              "C144 H102 O24 N12"
_cell_length_a       38.2984
_cell_length_b       38.2985
_cell_length_c       15.0403
_cell_angle_alpha    89.9994
_cell_angle_beta     90.0006
_cell_angle_gamma    120

_space_group_name_H-M_alt    "P 1"
_space_group_IT_number       1

loop_
  _space_group_symop_operation_xyz
  'x, y, z'

loop_
  _atom_site_type_symbol
  _atom_site_label
  _atom_site_symmetry_multiplicity
  _atom_site_fract_x
  _atom_site_fract_y
  _atom_site_fract_z
  _atom_site_occupancy
  C   C1        1.0  0.02156  0.52586  0.32673  1.0000
  C   C2        1.0  0.98516  0.48782  0.32749  1.0000
  C   C3        1.0  0.98683  0.45158  0.32961  1.0000
  C   C4        1.0  0.02445  0.45352  0.32842  1.0000
  C   C5        1.0  0.06087  0.49061  0.32460  1.0000
  C   C6        1.0  0.05950  0.52712  0.32510  1.0000
  C   C7        1.0  0.94806  0.48734  0.32631  1.0000
  C   C8        1.0  0.09489  0.56532  0.32190  1.0000
  H   H1        1.0  0.02529  0.42713  0.32949  1.0000
  C   C9        1.0  0.01989  0.56245  0.32685  1.0000
  C   C10       1.0  0.98195  0.56118  0.32534  1.0000
  C   C11       1.0  0.98057  0.59769  0.32509  1.0000
  C   C12       1.0  0.01700  0.63478  0.32896  1.0000
  C   C13       1.0  0.05461  0.63671  0.33007  1.0000
  C   C14       1.0  0.05629  0.60048  0.32772  1.0000
  C   C15       1.0  0.94656  0.52298  0.32201  1.0000
  H   H2        1.0  0.01616  0.66117  0.33015  1.0000
  C   C16       1.0  0.09339  0.60096  0.32642  1.0000
  H   H3        1.0  0.91865  0.52005  0.31749  1.0000
  H   H4        1.0  0.92116  0.46094  0.32723  1.0000
  H   H5        1.0  0.12028  0.62736  0.32737  1.0000
  H   H6        1.0  0.12279  0.56826  0.31723  1.0000
  C   C17       1.0  0.09696  0.48888  0.31535  1.0000
  C   C18       1.0  0.95239  0.41273  0.33634  1.0000
  C   C19       1.0  0.94449  0.59943  0.31580  1.0000
  C   C20       1.0  0.08906  0.67557  0.33683  1.0000
  O   O1        1.0  0.09672  0.46303  0.25344  1.0000
  O   O2        1.0  0.94638  0.39474  0.41683  1.0000
  O   O3        1.0  0.09514  0.69348  0.41743  1.0000
  C   C21       1.0  0.22063  0.51816  0.26211  1.0000
  C   C22       1.0  0.18337  0.51619  0.27304  1.0000
  H   H7        1.0  0.23093  0.51890  0.19885  1.0000
  H   H8        1.0  0.16848  0.51712  0.21750  1.0000
  C   C23       1.0  0.34173  0.49969  0.28405  1.0000
  C   C24       1.0  0.34564  0.53772  0.26666  1.0000
  C   C25       1.0  0.31406  0.54574  0.28483  1.0000
  H   H9        1.0  0.37262  0.56043  0.24325  1.0000
  C   C26       1.0  0.32199  0.58755  0.26834  1.0000
  O   O4        1.0  0.35553  0.61690  0.31914  1.0000
  H   H10       1.0  0.29597  0.59110  0.28241  1.0000
  H   H11       1.0  0.32919  0.59462  0.19805  1.0000
  H   H12       1.0  0.34806  0.61253  0.38251  1.0000
  N   N1        1.0  0.37396  0.49416  0.27126  1.0000
  H   H13       1.0  0.39058  0.50669  0.21874  1.0000
  C   C27       1.0  0.54686  0.77008  0.26243  1.0000
  C   C28       1.0  0.54887  0.73480  0.27335  1.0000
  H   H14       1.0  0.54621  0.77969  0.19918  1.0000
  H   H15       1.0  0.54805  0.71905  0.21777  1.0000
  C   C29       1.0  0.56528  0.90960  0.28427  1.0000
  C   C30       1.0  0.52729  0.87548  0.26648  1.0000
  C   C31       1.0  0.51923  0.83587  0.28475  1.0000
  H   H16       1.0  0.50465  0.87977  0.24266  1.0000
  C   C32       1.0  0.47747  0.80200  0.26778  1.0000
  O   O5        1.0  0.44797  0.80617  0.31804  1.0000
  H   H17       1.0  0.47388  0.77242  0.28200  1.0000
  H   H18       1.0  0.47059  0.80215  0.19736  1.0000
  H   H19       1.0  0.45216  0.80305  0.38151  1.0000
  N   N2        1.0  0.57088  0.94737  0.27114  1.0000
  H   H20       1.0  0.55842  0.95151  0.21860  1.0000
  C   C33       1.0  0.29478  0.84428  0.26243  1.0000
  C   C34       1.0  0.33006  0.88156  0.27332  1.0000
  H   H21       1.0  0.28513  0.83403  0.19919  1.0000
  H   H22       1.0  0.34577  0.89650  0.21772  1.0000
  C   C35       1.0  0.15527  0.72317  0.28454  1.0000
  C   C36       1.0  0.18937  0.71932  0.26648  1.0000
  C   C37       1.0  0.22899  0.75086  0.28465  1.0000
  H   H23       1.0  0.18506  0.69240  0.24256  1.0000
  C   C38       1.0  0.26285  0.74297  0.26741  1.0000
  O   O6        1.0  0.25872  0.70929  0.31752  1.0000
  H   H24       1.0  0.29244  0.76896  0.28158  1.0000
  H   H25       1.0  0.26264  0.73598  0.19696  1.0000
  H   H26       1.0  0.26189  0.71658  0.38100  1.0000
  N   N3        1.0  0.11749  0.69099  0.27165  1.0000
  H   H27       1.0  0.11332  0.67450  0.21884  1.0000
  C   C39       1.0  0.82084  0.57009  0.26225  1.0000
  C   C40       1.0  0.85809  0.57206  0.27329  1.0000
  H   H28       1.0  0.81057  0.56936  0.19896  1.0000
  H   H29       1.0  0.87301  0.57115  0.21779  1.0000
  C   C41       1.0  0.69980  0.58867  0.28375  1.0000
  C   C42       1.0  0.69584  0.55061  0.26655  1.0000
  C   C43       1.0  0.72740  0.54256  0.28485  1.0000
  H   H30       1.0  0.66885  0.52790  0.24316  1.0000
  C   C44       1.0  0.71943  0.50072  0.26852  1.0000
  O   O7        1.0  0.68587  0.47143  0.31938  1.0000
  H   H31       1.0  0.74543  0.49716  0.28267  1.0000
  H   H32       1.0  0.71222  0.49361  0.19825  1.0000
  H   H33       1.0  0.69335  0.47583  0.38274  1.0000
  N   N4        1.0  0.66762  0.59425  0.27077  1.0000
  H   H34       1.0  0.65087  0.58162  0.21848  1.0000
  C   C45       1.0  0.49456  0.31814  0.26230  1.0000
  C   C46       1.0  0.49259  0.35343  0.27323  1.0000
  H   H35       1.0  0.49521  0.30852  0.19905  1.0000
  H   H36       1.0  0.49343  0.36919  0.21765  1.0000
  C   C47       1.0  0.47616  0.17861  0.28425  1.0000
  C   C48       1.0  0.51416  0.21273  0.26660  1.0000
  C   C49       1.0  0.52221  0.25234  0.28480  1.0000
  H   H37       1.0  0.53683  0.20844  0.24292  1.0000
  C   C50       1.0  0.56399  0.28621  0.26797  1.0000
  O   O8        1.0  0.59343  0.28205  0.31846  1.0000
  H   H38       1.0  0.56756  0.31579  0.28210  1.0000
  H   H39       1.0  0.57093  0.28605  0.19761  1.0000
  H   H40       1.0  0.58918  0.28518  0.38188  1.0000
  N   N5        1.0  0.47056  0.14083  0.27123  1.0000
  H   H41       1.0  0.48308  0.13674  0.21872  1.0000
  C   C51       1.0  0.74663  0.24403  0.26227  1.0000
  C   C52       1.0  0.71136  0.20675  0.27318  1.0000
  H   H42       1.0  0.75625  0.25430  0.19902  1.0000
  H   H43       1.0  0.69562  0.19182  0.21761  1.0000
  C   C53       1.0  0.88615  0.36514  0.28418  1.0000
  C   C54       1.0  0.85204  0.36900  0.26633  1.0000
  C   C55       1.0  0.81243  0.33745  0.28456  1.0000
  H   H44       1.0  0.85633  0.39594  0.24252  1.0000
  C   C56       1.0  0.77856  0.34535  0.26754  1.0000
  O   O9        1.0  0.78271  0.37901  0.31781  1.0000
  H   H45       1.0  0.74898  0.31936  0.28174  1.0000
  H   H46       1.0  0.77872  0.35238  0.19713  1.0000
  H   H47       1.0  0.77958  0.37169  0.38127  1.0000
  N   N6        1.0  0.92392  0.39733  0.27124  1.0000
  H   H48       1.0  0.92804  0.41384  0.21851  1.0000
  O   O10       1.0  0.94475  0.62532  0.25398  1.0000
  C   C57       1.0  0.53906  0.56326  0.32674  1.0000
  C   C58       1.0  0.57708  0.56486  0.32746  1.0000
  C   C59       1.0  0.61333  0.60275  0.32970  1.0000
  C   C60       1.0  0.61144  0.63845  0.32863  1.0000
  C   C61       1.0  0.57437  0.63783  0.32485  1.0000
  C   C62       1.0  0.53783  0.59995  0.32523  1.0000
  C   C63       1.0  0.57752  0.52821  0.32616  1.0000
  C   C64       1.0  0.49965  0.59718  0.32199  1.0000
  H   H49       1.0  0.63784  0.66566  0.32977  1.0000
  C   C65       1.0  0.50245  0.52501  0.32677  1.0000
  C   C66       1.0  0.50368  0.48832  0.32517  1.0000
  C   C67       1.0  0.46715  0.45044  0.32486  1.0000
  C   C68       1.0  0.43008  0.44982  0.32873  1.0000
  C   C69       1.0  0.42818  0.48552  0.32989  1.0000
  C   C70       1.0  0.46443  0.52341  0.32762  1.0000
  C   C71       1.0  0.54187  0.49110  0.32179  1.0000
  H   H50       1.0  0.40368  0.42260  0.32991  1.0000
  C   C72       1.0  0.46399  0.56006  0.32644  1.0000
  H   H51       1.0  0.54477  0.46611  0.31712  1.0000
  H   H52       1.0  0.60391  0.52770  0.32697  1.0000
  H   H53       1.0  0.43761  0.56058  0.32733  1.0000
  H   H54       1.0  0.49674  0.62216  0.31735  1.0000
  C   C73       1.0  0.57614  0.67567  0.31570  1.0000
  C   C74       1.0  0.65216  0.60707  0.33629  1.0000
  C   C75       1.0  0.46538  0.41260  0.31563  1.0000
  C   C76       1.0  0.38935  0.48118  0.33659  1.0000
  O   O11       1.0  0.60205  0.70132  0.25394  1.0000
  O   O12       1.0  0.67062  0.61976  0.41614  1.0000
  O   O13       1.0  0.43944  0.38695  0.25392  1.0000
  O   O14       1.0  0.37097  0.46859  0.41653  1.0000
  C   C77       1.0  0.50163  0.04330  0.32674  1.0000
  C   C78       1.0  0.50000  0.07971  0.32759  1.0000
  C   C79       1.0  0.46210  0.07806  0.32994  1.0000
  C   C80       1.0  0.42641  0.04044  0.32879  1.0000
  C   C81       1.0  0.42706  0.00401  0.32484  1.0000
  C   C82       1.0  0.46495  0.00538  0.32517  1.0000
  C   C83       1.0  0.53664  0.11681  0.32628  1.0000
  C   C84       1.0  0.46775  0.96998  0.32179  1.0000
  H   H55       1.0  0.39919  0.03961  0.32999  1.0000
  C   C85       1.0  0.53988  0.04497  0.32669  1.0000
  C   C86       1.0  0.57656  0.08290  0.32509  1.0000
  C   C87       1.0  0.61445  0.08426  0.32467  1.0000
  C   C88       1.0  0.61509  0.04783  0.32852  1.0000
  C   C89       1.0  0.57941  0.01022  0.32970  1.0000
  C   C90       1.0  0.54151  0.00856  0.32746  1.0000
  C   C91       1.0  0.57376  0.11830  0.32178  1.0000
  H   H56       1.0  0.64232  0.04866  0.32969  1.0000
  C   C92       1.0  0.50487  0.97146  0.32622  1.0000
  H   H57       1.0  0.59873  0.14619  0.31710  1.0000
  H   H58       1.0  0.53713  0.14371  0.32714  1.0000
  H   H59       1.0  0.50438  0.94456  0.32701  1.0000
  H   H60       1.0  0.44277  0.94208  0.31714  1.0000
  C   C93       1.0  0.38924  0.96792  0.31564  1.0000
  C   C94       1.0  0.45773  0.11253  0.33668  1.0000
  C   C95       1.0  0.65227  0.12035  0.31553  1.0000
  C   C96       1.0  0.58380  0.97576  0.33642  1.0000
  O   O15       1.0  0.36351  0.96823  0.25415  1.0000
  O   O16       1.0  0.44549  0.11844  0.41694  1.0000
  O   O17       1.0  0.67795  0.12009  0.25384  1.0000
  O   O18       1.0  0.59583  0.96977  0.41687  1.0000
  C   C97       1.0  0.16640  0.51227  0.35846  1.0000
  C   C98       1.0  0.18977  0.51418  0.43300  1.0000
  C   C99       1.0  0.22786  0.51689  0.42386  1.0000
  C   C100      1.0  0.24293  0.51801  0.33669  1.0000
  C   C101      1.0  0.27722  0.51406  0.31987  1.0000
  C   C102      1.0  0.27277  0.47554  0.33399  1.0000
  C   C103      1.0  0.30465  0.46847  0.31650  1.0000
  H   H61       1.0  0.24618  0.45214  0.35729  1.0000
  H   H62       1.0  0.30064  0.44034  0.32756  1.0000
  H   H63       1.0  0.17826  0.51253  0.49534  1.0000
  C   C104      1.0  0.25013  0.51871  0.50660  1.0000
  O   O19       1.0  0.22890  0.48102  0.55250  1.0000
  H   H64       1.0  0.28085  0.52530  0.49286  1.0000
  H   H65       1.0  0.25241  0.54301  0.54894  1.0000
  H   H66       1.0  0.24378  0.48336  0.60763  1.0000
  N   N7        1.0  0.12925  0.50881  0.37048  1.0000
  H   H67       1.0  0.12559  0.52134  0.42354  1.0000
  C   C105      1.0  0.55269  0.72170  0.35877  1.0000
  C   C106      1.0  0.55063  0.74307  0.43332  1.0000
  C   C107      1.0  0.54788  0.77842  0.42420  1.0000
  C   C108      1.0  0.54686  0.79244  0.33703  1.0000
  C   C109      1.0  0.55082  0.83069  0.32027  1.0000
  C   C110      1.0  0.58930  0.86476  0.33481  1.0000
  C   C111      1.0  0.59641  0.90372  0.31723  1.0000
  H   H68       1.0  0.61265  0.86156  0.35842  1.0000
  H   H69       1.0  0.62452  0.92783  0.32853  1.0000
  H   H70       1.0  0.55220  0.73316  0.49565  1.0000
  C   C112      1.0  0.54590  0.79877  0.50695  1.0000
  O   O20       1.0  0.58352  0.81525  0.55313  1.0000
  H   H71       1.0  0.53928  0.82288  0.49318  1.0000
  H   H72       1.0  0.52155  0.77669  0.54909  1.0000
  H   H73       1.0  0.58107  0.82771  0.60826  1.0000
  N   N8        1.0  0.55616  0.68800  0.37080  1.0000
  H   H74       1.0  0.54359  0.67179  0.42377  1.0000
  C   C113      1.0  0.34321  0.89846  0.35874  1.0000
  C   C114      1.0  0.32189  0.87501  0.43330  1.0000
  C   C115      1.0  0.28653  0.83690  0.42421  1.0000
  C   C116      1.0  0.27246  0.82189  0.33706  1.0000
  C   C117      1.0  0.23420  0.78761  0.32035  1.0000
  C   C118      1.0  0.20014  0.79201  0.33517  1.0000
  C   C119      1.0  0.16117  0.76017  0.31771  1.0000
  H   H75       1.0  0.20335  0.81854  0.35892  1.0000
  H   H76       1.0  0.13706  0.76414  0.32925  1.0000
  H   H77       1.0  0.33183  0.88647  0.49563  1.0000
  C   C120      1.0  0.26623  0.81455  0.50698  1.0000
  O   O21       1.0  0.24977  0.83568  0.55329  1.0000
  H   H78       1.0  0.24212  0.78381  0.49321  1.0000
  H   H79       1.0  0.28834  0.81227  0.54902  1.0000
  H   H80       1.0  0.23733  0.82075  0.60842  1.0000
  N   N9        1.0  0.37691  0.93562  0.37075  1.0000
  H   H81       1.0  0.39315  0.93925  0.42367  1.0000
  C   C121      1.0  0.87502  0.57599  0.35876  1.0000
  C   C122      1.0  0.85162  0.57408  0.43323  1.0000
  C   C123      1.0  0.81355  0.57138  0.42399  1.0000
  C   C124      1.0  0.79851  0.57026  0.33677  1.0000
  C   C125      1.0  0.76425  0.57424  0.31983  1.0000
  C   C126      1.0  0.76875  0.61279  0.33375  1.0000
  C   C127      1.0  0.73690  0.61989  0.31611  1.0000
  H   H82       1.0  0.79535  0.63619  0.35699  1.0000
  H   H83       1.0  0.74094  0.64804  0.32701  1.0000
  H   H84       1.0  0.86311  0.57574  0.49559  1.0000
  C   C128      1.0  0.79125  0.56959  0.50666  1.0000
  O   O22       1.0  0.81247  0.60728  0.55255  1.0000
  H   H85       1.0  0.76054  0.56301  0.49283  1.0000
  H   H86       1.0  0.78893  0.54528  0.54903  1.0000
  H   H87       1.0  0.79757  0.60495  0.60764  1.0000
  N   N10       1.0  0.91218  0.57946  0.37088  1.0000
  H   H88       1.0  0.91580  0.56690  0.42390  1.0000
  C   C129      1.0  0.48878  0.36654  0.35866  1.0000
  C   C130      1.0  0.49082  0.34515  0.43319  1.0000
  C   C131      1.0  0.49353  0.30978  0.42407  1.0000
  C   C132      1.0  0.49454  0.29576  0.33690  1.0000
  C   C133      1.0  0.49059  0.25752  0.32013  1.0000
  C   C134      1.0  0.45209  0.22344  0.33454  1.0000
  C   C135      1.0  0.44500  0.18449  0.31701  1.0000
  H   H89       1.0  0.42873  0.22664  0.35804  1.0000
  H   H90       1.0  0.41688  0.16037  0.32824  1.0000
  H   H91       1.0  0.48926  0.35507  0.49553  1.0000
  C   C136      1.0  0.49549  0.28941  0.50682  1.0000
  O   O23       1.0  0.45786  0.27296  0.55299  1.0000
  H   H92       1.0  0.50208  0.26528  0.49305  1.0000
  H   H93       1.0  0.51985  0.31147  0.54896  1.0000
  H   H94       1.0  0.46030  0.26049  0.60811  1.0000
  N   N11       1.0  0.48535  0.40025  0.37068  1.0000
  H   H95       1.0  0.49794  0.41647  0.42365  1.0000
  C   C137      1.0  0.69827  0.18982  0.35861  1.0000
  C   C138      1.0  0.71963  0.21325  0.43315  1.0000
  C   C139      1.0  0.75497  0.25136  0.42404  1.0000
  C   C140      1.0  0.76899  0.26640  0.33687  1.0000
  C   C141      1.0  0.80724  0.30069  0.32011  1.0000
  C   C142      1.0  0.84131  0.29628  0.33470  1.0000
  C   C143      1.0  0.88027  0.32813  0.31717  1.0000
  H   H96       1.0  0.83811  0.26973  0.35835  1.0000
  H   H97       1.0  0.90438  0.32414  0.32856  1.0000
  H   H98       1.0  0.70972  0.20177  0.49549  1.0000
  C   C144      1.0  0.77532  0.27370  0.50678  1.0000
  O   O24       1.0  0.79182  0.25256  0.55295  1.0000
  H   H99       1.0  0.79942  0.30444  0.49301  1.0000
  H   H100      1.0  0.75324  0.27596  0.54893  1.0000
  H   H101      1.0  0.80428  0.26748  0.60808  1.0000
  N   N12       1.0  0.66459  0.15265  0.37063  1.0000
  H   H102      1.0  0.64836  0.14900  0.42359  1.0000
