data_image0
_chemical_formula_structural       C9H6C2O4C4HC5HO2NHC2NC3HC4HNC3HO2NHNHC16H10C3NC2HNHNH2C9H6C2O4C4HC5HO2NHC2NC3HC4HNC3HO2NHNHC16H10C3NC2HNHNH2C9H6C2O4C4HC5HO2NHC2NC3HC4HNC3HO2NHNHC16H10C3NC2HNHNH2C9H6C2O4C4HC5HO2NHC2NC3HC4HNC3HO2NHNHC16H10C3NC2HNHNH2
_chemical_formula_sum              "C212 H112 O32 N32"
_cell_length_a       39.2512
_cell_length_b       39.2512
_cell_length_c       15.0105
_cell_angle_alpha    90
_cell_angle_beta     90
_cell_angle_gamma    90

_space_group_name_H-M_alt    "P 1"
_space_group_IT_number       1

loop_
  _space_group_symop_operation_xyz
  'x, y, z'

loop_
  _atom_site_type_symbol
  _atom_site_label
  _atom_site_symmetry_multiplicity
  _atom_site_fract_x
  _atom_site_fract_y
  _atom_site_fract_z
  _atom_site_occupancy
  C   C1        1.0  0.45893  0.47629  0.03036  1.0000
  C   C2        1.0  0.43228  0.47659  0.09277  1.0000
  C   C3        1.0  0.41252  0.50620  0.10769  1.0000
  C   C4        1.0  0.42151  0.03573  0.05884  1.0000
  C   C5        1.0  0.03158  0.04508  0.01859  1.0000
  C   C6        1.0  0.05584  0.05169  0.08516  1.0000
  C   C7        1.0  0.07437  0.02496  0.12550  1.0000
  C   C8        1.0  0.06730  0.49134  0.09702  1.0000
  C   C9        1.0  0.04324  0.48490  0.02967  1.0000
  H   H1        1.0  0.42735  0.45449  0.12652  1.0000
  H   H2        1.0  0.47270  0.45432  0.02396  1.0000
  H   H3        1.0  0.40943  0.05839  0.06957  1.0000
  H   H4        1.0  0.06010  0.07647  0.10307  1.0000
  H   H5        1.0  0.08057  0.47107  0.12197  1.0000
  H   H6        1.0  0.03887  0.46009  0.01274  1.0000
  C   C10       1.0  0.38408  0.50485  0.16738  1.0000
  C   C11       1.0  0.10184  0.03254  0.18450  1.0000
  O   O1        1.0  0.12020  0.06071  0.16368  1.0000
  O   O2        1.0  0.46505  0.11530  0.27028  1.0000
  O   O3        1.0  0.38228  0.47845  0.22550  1.0000
  O   O4        1.0  0.03851  0.38177  0.30249  1.0000
  C   C12       1.0  0.02566  0.14957  0.25471  1.0000
  C   C13       1.0  0.02253  0.21955  0.29026  1.0000
  C   C14       1.0  0.01237  0.20771  0.20482  1.0000
  C   C15       1.0  0.01390  0.17219  0.18838  1.0000
  H   H7        1.0  0.00530  0.16243  0.12932  1.0000
  C   C16       1.0  0.01877  0.25411  0.31332  1.0000
  C   C17       1.0  0.00130  0.31199  0.27867  1.0000
  C   C18       1.0  0.00586  0.27787  0.25039  1.0000
  C   C19       1.0  0.99714  0.26632  0.16400  1.0000
  C   C20       1.0  0.00007  0.23150  0.14169  1.0000
  H   H8        1.0  0.99108  0.32960  0.23611  1.0000
  O   O5        1.0  0.98467  0.28820  0.10227  1.0000
  O   O6        1.0  0.99037  0.22123  0.05934  1.0000
  N   N1        1.0  0.02342  0.11507  0.24537  1.0000
  H   H9        1.0  0.04501  0.10328  0.25166  1.0000
  C   C21       1.0  0.32541  0.51966  0.19749  1.0000
  C   C22       1.0  0.30604  0.54515  0.24010  1.0000
  N   N2        1.0  0.27265  0.53983  0.25849  1.0000
  C   C23       1.0  0.25592  0.51055  0.23771  1.0000
  C   C24       1.0  0.27387  0.48380  0.19450  1.0000
  C   C25       1.0  0.30876  0.48884  0.17540  1.0000
  H   H10       1.0  0.32169  0.47088  0.13942  1.0000
  C   C26       1.0  0.22045  0.50786  0.25147  1.0000
  C   C27       1.0  0.16831  0.53473  0.29428  1.0000
  C   C28       1.0  0.14892  0.50751  0.25966  1.0000
  C   C29       1.0  0.16660  0.47880  0.22674  1.0000
  H   H11       1.0  0.31660  0.56824  0.25503  1.0000
  N   N3        1.0  0.20273  0.53427  0.28740  1.0000
  C   C30       1.0  0.20254  0.47863  0.22096  1.0000
  C   C31       1.0  0.22072  0.45159  0.18073  1.0000
  C   C32       1.0  0.25617  0.45412  0.16781  1.0000
  H   H12       1.0  0.15293  0.45924  0.19922  1.0000
  O   O7        1.0  0.20437  0.42349  0.15033  1.0000
  O   O8        1.0  0.27250  0.42832  0.12566  1.0000
  N   N4        1.0  0.11458  0.50993  0.24519  1.0000
  H   H13       1.0  0.10137  0.48937  0.25656  1.0000
  N   N5        1.0  0.35725  0.52695  0.16545  1.0000
  H   H14       1.0  0.35831  0.54673  0.12672  1.0000
  C   C33       1.0  0.49719  0.07460  0.35166  1.0000
  C   C34       1.0  0.02737  0.06818  0.40052  1.0000
  C   C35       1.0  0.02742  0.04654  0.47500  1.0000
  C   C36       1.0  0.49721  0.03090  0.50704  1.0000
  C   C37       1.0  0.46748  0.03589  0.45475  1.0000
  C   C38       1.0  0.46733  0.05749  0.37989  1.0000
  C   C39       1.0  0.99798  0.50501  0.58297  1.0000
  C   C40       1.0  0.00243  0.47225  0.52924  1.0000
  C   C41       1.0  0.47410  0.45263  0.50028  1.0000
  C   C42       1.0  0.47813  0.42351  0.44691  1.0000
  C   C43       1.0  0.01067  0.41360  0.41646  1.0000
  C   C44       1.0  0.03884  0.43426  0.43853  1.0000
  C   C45       1.0  0.03468  0.46299  0.49346  1.0000
  C   C46       1.0  0.02570  0.01167  0.65226  1.0000
  C   C47       1.0  0.46676  0.50513  0.64372  1.0000
  C   C48       1.0  0.44808  0.03523  0.66254  1.0000
  H   H15       1.0  0.45407  0.05761  0.63149  1.0000
  H   H16       1.0  0.01864  0.06538  0.65922  1.0000
  H   H17       1.0  0.05584  0.47712  0.50790  1.0000
  H   H18       1.0  0.06283  0.42795  0.41749  1.0000
  H   H19       1.0  0.45694  0.40980  0.42968  1.0000
  H   H20       1.0  0.44987  0.45928  0.51794  1.0000
  H   H21       1.0  0.44529  0.02380  0.47120  1.0000
  H   H22       1.0  0.05023  0.04240  0.50592  1.0000
  H   H23       1.0  0.04981  0.07986  0.38491  1.0000
  H   H24       1.0  0.44486  0.06068  0.34634  1.0000
  C   C49       1.0  0.01496  0.38276  0.36843  1.0000
  C   C50       1.0  0.49557  0.09973  0.28244  1.0000
  C   C51       1.0  0.03696  0.16332  0.33638  1.0000
  N   N6        1.0  0.03445  0.19714  0.35167  1.0000
  C   C52       1.0  0.02077  0.29667  0.42647  1.0000
  C   C53       1.0  0.00834  0.32169  0.36748  1.0000
  H   H25       1.0  0.04514  0.14788  0.38681  1.0000
  N   N7        1.0  0.02565  0.26440  0.39783  1.0000
  H   H26       1.0  0.02593  0.30243  0.49149  1.0000
  N   N8        1.0  0.00087  0.35334  0.39929  1.0000
  H   H27       1.0  0.98886  0.35410  0.45625  1.0000
  H   H28       1.0  0.15669  0.55616  0.31811  1.0000
  C   C54       1.0  0.45893  0.97628  0.03036  1.0000
  C   C55       1.0  0.43228  0.97659  0.09277  1.0000
  C   C56       1.0  0.41252  0.00620  0.10769  1.0000
  C   C57       1.0  0.42151  0.53573  0.05884  1.0000
  C   C58       1.0  0.03158  0.54508  0.01859  1.0000
  C   C59       1.0  0.05584  0.55169  0.08516  1.0000
  C   C60       1.0  0.07437  0.52496  0.12550  1.0000
  C   C61       1.0  0.06730  0.99134  0.09702  1.0000
  C   C62       1.0  0.04324  0.98491  0.02967  1.0000
  H   H29       1.0  0.42735  0.95448  0.12652  1.0000
  H   H30       1.0  0.47270  0.95432  0.02396  1.0000
  H   H31       1.0  0.40943  0.55839  0.06957  1.0000
  H   H32       1.0  0.06010  0.57647  0.10307  1.0000
  H   H33       1.0  0.08057  0.97107  0.12197  1.0000
  H   H34       1.0  0.03887  0.96008  0.01274  1.0000
  C   C63       1.0  0.38408  0.00485  0.16738  1.0000
  C   C64       1.0  0.10184  0.53254  0.18450  1.0000
  O   O9        1.0  0.12020  0.56071  0.16368  1.0000
  O   O10       1.0  0.46505  0.61530  0.27028  1.0000
  O   O11       1.0  0.38228  0.97845  0.22550  1.0000
  O   O12       1.0  0.03851  0.88177  0.30249  1.0000
  C   C65       1.0  0.02566  0.64957  0.25471  1.0000
  C   C66       1.0  0.02253  0.71955  0.29026  1.0000
  C   C67       1.0  0.01237  0.70771  0.20482  1.0000
  C   C68       1.0  0.01390  0.67219  0.18838  1.0000
  H   H35       1.0  0.00530  0.66243  0.12932  1.0000
  C   C69       1.0  0.01877  0.75411  0.31332  1.0000
  C   C70       1.0  0.00130  0.81199  0.27867  1.0000
  C   C71       1.0  0.00586  0.77787  0.25039  1.0000
  C   C72       1.0  0.99714  0.76632  0.16400  1.0000
  C   C73       1.0  0.00007  0.73150  0.14169  1.0000
  H   H36       1.0  0.99108  0.82960  0.23611  1.0000
  O   O13       1.0  0.98467  0.78820  0.10227  1.0000
  O   O14       1.0  0.99037  0.72123  0.05934  1.0000
  N   N9        1.0  0.02342  0.61507  0.24537  1.0000
  H   H37       1.0  0.04501  0.60328  0.25166  1.0000
  C   C74       1.0  0.32541  0.01966  0.19749  1.0000
  C   C75       1.0  0.30604  0.04515  0.24010  1.0000
  N   N10       1.0  0.27265  0.03983  0.25849  1.0000
  C   C76       1.0  0.25592  0.01055  0.23771  1.0000
  C   C77       1.0  0.27387  0.98380  0.19450  1.0000
  C   C78       1.0  0.30876  0.98884  0.17540  1.0000
  H   H38       1.0  0.32169  0.97088  0.13942  1.0000
  C   C79       1.0  0.22045  0.00786  0.25147  1.0000
  C   C80       1.0  0.16831  0.03473  0.29428  1.0000
  C   C81       1.0  0.14892  0.00751  0.25966  1.0000
  C   C82       1.0  0.16660  0.97880  0.22674  1.0000
  H   H39       1.0  0.31660  0.06824  0.25503  1.0000
  N   N11       1.0  0.20273  0.03427  0.28740  1.0000
  C   C83       1.0  0.20254  0.97863  0.22096  1.0000
  C   C84       1.0  0.22072  0.95159  0.18073  1.0000
  C   C85       1.0  0.25617  0.95412  0.16781  1.0000
  H   H40       1.0  0.15293  0.95924  0.19922  1.0000
  O   O15       1.0  0.20437  0.92348  0.15033  1.0000
  O   O16       1.0  0.27250  0.92832  0.12566  1.0000
  N   N12       1.0  0.11458  0.00993  0.24519  1.0000
  H   H41       1.0  0.10137  0.98937  0.25656  1.0000
  N   N13       1.0  0.35725  0.02695  0.16545  1.0000
  H   H42       1.0  0.35831  0.04673  0.12672  1.0000
  C   C86       1.0  0.49719  0.57460  0.35166  1.0000
  C   C87       1.0  0.02737  0.56818  0.40052  1.0000
  C   C88       1.0  0.02742  0.54654  0.47500  1.0000
  C   C89       1.0  0.49721  0.53090  0.50704  1.0000
  C   C90       1.0  0.46748  0.53589  0.45475  1.0000
  C   C91       1.0  0.46733  0.55749  0.37989  1.0000
  C   C92       1.0  0.99798  0.00500  0.58297  1.0000
  C   C93       1.0  0.00243  0.97225  0.52924  1.0000
  C   C94       1.0  0.47410  0.95263  0.50028  1.0000
  C   C95       1.0  0.47813  0.92352  0.44691  1.0000
  C   C96       1.0  0.01067  0.91360  0.41646  1.0000
  C   C97       1.0  0.03884  0.93426  0.43853  1.0000
  C   C98       1.0  0.03468  0.96299  0.49346  1.0000
  C   C99       1.0  0.02570  0.51167  0.65226  1.0000
  C   C100      1.0  0.46676  0.00513  0.64372  1.0000
  C   C101      1.0  0.44808  0.53523  0.66254  1.0000
  H   H43       1.0  0.45407  0.55761  0.63149  1.0000
  H   H44       1.0  0.01864  0.56538  0.65922  1.0000
  H   H45       1.0  0.05584  0.97713  0.50790  1.0000
  H   H46       1.0  0.06283  0.92795  0.41749  1.0000
  H   H47       1.0  0.45694  0.90980  0.42968  1.0000
  H   H48       1.0  0.44987  0.95928  0.51794  1.0000
  H   H49       1.0  0.44529  0.52380  0.47120  1.0000
  H   H50       1.0  0.05023  0.54240  0.50592  1.0000
  H   H51       1.0  0.04981  0.57986  0.38491  1.0000
  H   H52       1.0  0.44486  0.56068  0.34634  1.0000
  C   C102      1.0  0.01496  0.88276  0.36843  1.0000
  C   C103      1.0  0.49557  0.59973  0.28244  1.0000
  C   C104      1.0  0.03696  0.66332  0.33638  1.0000
  N   N14       1.0  0.03445  0.69714  0.35167  1.0000
  C   C105      1.0  0.02077  0.79667  0.42647  1.0000
  C   C106      1.0  0.00834  0.82169  0.36748  1.0000
  H   H53       1.0  0.04514  0.64788  0.38681  1.0000
  N   N15       1.0  0.02565  0.76440  0.39783  1.0000
  H   H54       1.0  0.02593  0.80243  0.49149  1.0000
  N   N16       1.0  0.00087  0.85334  0.39929  1.0000
  H   H55       1.0  0.98886  0.85410  0.45625  1.0000
  H   H56       1.0  0.15669  0.05616  0.31811  1.0000
  C   C107      1.0  0.95893  0.47629  0.03036  1.0000
  C   C108      1.0  0.93228  0.47659  0.09277  1.0000
  C   C109      1.0  0.91252  0.50620  0.10769  1.0000
  C   C110      1.0  0.92151  0.03573  0.05884  1.0000
  C   C111      1.0  0.53158  0.04508  0.01859  1.0000
  C   C112      1.0  0.55584  0.05169  0.08516  1.0000
  C   C113      1.0  0.57437  0.02496  0.12550  1.0000
  C   C114      1.0  0.56730  0.49134  0.09702  1.0000
  C   C115      1.0  0.54324  0.48490  0.02967  1.0000
  H   H57       1.0  0.92735  0.45449  0.12652  1.0000
  H   H58       1.0  0.97270  0.45432  0.02396  1.0000
  H   H59       1.0  0.90943  0.05839  0.06957  1.0000
  H   H60       1.0  0.56010  0.07647  0.10307  1.0000
  H   H61       1.0  0.58057  0.47107  0.12197  1.0000
  H   H62       1.0  0.53887  0.46009  0.01274  1.0000
  C   C116      1.0  0.88408  0.50485  0.16738  1.0000
  C   C117      1.0  0.60184  0.03254  0.18450  1.0000
  O   O17       1.0  0.62020  0.06071  0.16368  1.0000
  O   O18       1.0  0.96505  0.11530  0.27028  1.0000
  O   O19       1.0  0.88228  0.47845  0.22550  1.0000
  O   O20       1.0  0.53851  0.38177  0.30249  1.0000
  C   C118      1.0  0.52567  0.14957  0.25471  1.0000
  C   C119      1.0  0.52253  0.21955  0.29026  1.0000
  C   C120      1.0  0.51237  0.20771  0.20482  1.0000
  C   C121      1.0  0.51390  0.17219  0.18838  1.0000
  H   H63       1.0  0.50530  0.16243  0.12932  1.0000
  C   C122      1.0  0.51877  0.25411  0.31332  1.0000
  C   C123      1.0  0.50130  0.31199  0.27867  1.0000
  C   C124      1.0  0.50586  0.27787  0.25039  1.0000
  C   C125      1.0  0.49715  0.26632  0.16400  1.0000
  C   C126      1.0  0.50007  0.23150  0.14169  1.0000
  H   H64       1.0  0.49108  0.32960  0.23611  1.0000
  O   O21       1.0  0.48467  0.28820  0.10227  1.0000
  O   O22       1.0  0.49037  0.22123  0.05934  1.0000
  N   N17       1.0  0.52343  0.11507  0.24537  1.0000
  H   H65       1.0  0.54501  0.10328  0.25166  1.0000
  C   C127      1.0  0.82541  0.51966  0.19749  1.0000
  C   C128      1.0  0.80604  0.54515  0.24010  1.0000
  N   N18       1.0  0.77265  0.53983  0.25849  1.0000
  C   C129      1.0  0.75592  0.51055  0.23771  1.0000
  C   C130      1.0  0.77387  0.48380  0.19450  1.0000
  C   C131      1.0  0.80876  0.48884  0.17540  1.0000
  H   H66       1.0  0.82170  0.47088  0.13942  1.0000
  C   C132      1.0  0.72045  0.50786  0.25147  1.0000
  C   C133      1.0  0.66831  0.53473  0.29428  1.0000
  C   C134      1.0  0.64892  0.50751  0.25966  1.0000
  C   C135      1.0  0.66660  0.47880  0.22674  1.0000
  H   H67       1.0  0.81660  0.56824  0.25503  1.0000
  N   N19       1.0  0.70273  0.53427  0.28740  1.0000
  C   C136      1.0  0.70254  0.47863  0.22096  1.0000
  C   C137      1.0  0.72072  0.45159  0.18073  1.0000
  C   C138      1.0  0.75617  0.45412  0.16781  1.0000
  H   H68       1.0  0.65293  0.45924  0.19922  1.0000
  O   O23       1.0  0.70437  0.42349  0.15033  1.0000
  O   O24       1.0  0.77250  0.42832  0.12566  1.0000
  N   N20       1.0  0.61458  0.50993  0.24519  1.0000
  H   H69       1.0  0.60137  0.48937  0.25656  1.0000
  N   N21       1.0  0.85725  0.52695  0.16545  1.0000
  H   H70       1.0  0.85832  0.54673  0.12672  1.0000
  C   C139      1.0  0.99720  0.07460  0.35166  1.0000
  C   C140      1.0  0.52737  0.06818  0.40052  1.0000
  C   C141      1.0  0.52742  0.04654  0.47500  1.0000
  C   C142      1.0  0.99721  0.03090  0.50704  1.0000
  C   C143      1.0  0.96748  0.03589  0.45475  1.0000
  C   C144      1.0  0.96733  0.05749  0.37989  1.0000
  C   C145      1.0  0.49798  0.50501  0.58297  1.0000
  C   C146      1.0  0.50243  0.47225  0.52924  1.0000
  C   C147      1.0  0.97410  0.45263  0.50028  1.0000
  C   C148      1.0  0.97813  0.42351  0.44691  1.0000
  C   C149      1.0  0.51067  0.41360  0.41646  1.0000
  C   C150      1.0  0.53884  0.43426  0.43853  1.0000
  C   C151      1.0  0.53468  0.46299  0.49346  1.0000
  C   C152      1.0  0.52571  0.01167  0.65226  1.0000
  C   C153      1.0  0.96676  0.50513  0.64372  1.0000
  C   C154      1.0  0.94808  0.03523  0.66254  1.0000
  H   H71       1.0  0.95407  0.05761  0.63149  1.0000
  H   H72       1.0  0.51864  0.06538  0.65922  1.0000
  H   H73       1.0  0.55583  0.47712  0.50790  1.0000
  H   H74       1.0  0.56283  0.42795  0.41749  1.0000
  H   H75       1.0  0.95695  0.40980  0.42968  1.0000
  H   H76       1.0  0.94987  0.45928  0.51794  1.0000
  H   H77       1.0  0.94529  0.02380  0.47120  1.0000
  H   H78       1.0  0.55023  0.04240  0.50592  1.0000
  H   H79       1.0  0.54981  0.07986  0.38491  1.0000
  H   H80       1.0  0.94485  0.06068  0.34634  1.0000
  C   C155      1.0  0.51496  0.38276  0.36843  1.0000
  C   C156      1.0  0.99557  0.09973  0.28244  1.0000
  C   C157      1.0  0.53696  0.16332  0.33638  1.0000
  N   N22       1.0  0.53445  0.19714  0.35167  1.0000
  C   C158      1.0  0.52077  0.29667  0.42647  1.0000
  C   C159      1.0  0.50834  0.32169  0.36748  1.0000
  H   H81       1.0  0.54514  0.14788  0.38681  1.0000
  N   N23       1.0  0.52565  0.26440  0.39783  1.0000
  H   H82       1.0  0.52593  0.30243  0.49149  1.0000
  N   N24       1.0  0.50087  0.35334  0.39929  1.0000
  H   H83       1.0  0.48886  0.35410  0.45625  1.0000
  H   H84       1.0  0.65669  0.55616  0.31811  1.0000
  C   C160      1.0  0.95893  0.97628  0.03036  1.0000
  C   C161      1.0  0.93228  0.97659  0.09277  1.0000
  C   C162      1.0  0.91252  0.00620  0.10769  1.0000
  C   C163      1.0  0.92151  0.53573  0.05884  1.0000
  C   C164      1.0  0.53158  0.54508  0.01859  1.0000
  C   C165      1.0  0.55584  0.55169  0.08516  1.0000
  C   C166      1.0  0.57437  0.52496  0.12550  1.0000
  C   C167      1.0  0.56730  0.99134  0.09702  1.0000
  C   C168      1.0  0.54324  0.98491  0.02967  1.0000
  H   H85       1.0  0.92735  0.95448  0.12652  1.0000
  H   H86       1.0  0.97270  0.95432  0.02396  1.0000
  H   H87       1.0  0.90943  0.55839  0.06957  1.0000
  H   H88       1.0  0.56010  0.57647  0.10307  1.0000
  H   H89       1.0  0.58057  0.97107  0.12197  1.0000
  H   H90       1.0  0.53887  0.96008  0.01274  1.0000
  C   C169      1.0  0.88408  0.00485  0.16738  1.0000
  C   C170      1.0  0.60184  0.53254  0.18450  1.0000
  O   O25       1.0  0.62020  0.56071  0.16368  1.0000
  O   O26       1.0  0.96505  0.61530  0.27028  1.0000
  O   O27       1.0  0.88228  0.97845  0.22550  1.0000
  O   O28       1.0  0.53851  0.88177  0.30249  1.0000
  C   C171      1.0  0.52567  0.64957  0.25471  1.0000
  C   C172      1.0  0.52253  0.71955  0.29026  1.0000
  C   C173      1.0  0.51237  0.70771  0.20482  1.0000
  C   C174      1.0  0.51390  0.67219  0.18838  1.0000
  H   H91       1.0  0.50530  0.66243  0.12932  1.0000
  C   C175      1.0  0.51877  0.75411  0.31332  1.0000
  C   C176      1.0  0.50130  0.81199  0.27867  1.0000
  C   C177      1.0  0.50586  0.77787  0.25039  1.0000
  C   C178      1.0  0.49715  0.76632  0.16400  1.0000
  C   C179      1.0  0.50007  0.73150  0.14169  1.0000
  H   H92       1.0  0.49108  0.82960  0.23611  1.0000
  O   O29       1.0  0.48467  0.78820  0.10227  1.0000
  O   O30       1.0  0.49037  0.72123  0.05934  1.0000
  N   N25       1.0  0.52343  0.61507  0.24537  1.0000
  H   H93       1.0  0.54501  0.60328  0.25166  1.0000
  C   C180      1.0  0.82541  0.01966  0.19749  1.0000
  C   C181      1.0  0.80604  0.04515  0.24010  1.0000
  N   N26       1.0  0.77265  0.03983  0.25849  1.0000
  C   C182      1.0  0.75592  0.01055  0.23771  1.0000
  C   C183      1.0  0.77387  0.98380  0.19450  1.0000
  C   C184      1.0  0.80876  0.98884  0.17540  1.0000
  H   H94       1.0  0.82170  0.97088  0.13942  1.0000
  C   C185      1.0  0.72045  0.00786  0.25147  1.0000
  C   C186      1.0  0.66831  0.03473  0.29428  1.0000
  C   C187      1.0  0.64892  0.00751  0.25966  1.0000
  C   C188      1.0  0.66660  0.97880  0.22674  1.0000
  H   H95       1.0  0.81660  0.06824  0.25503  1.0000
  N   N27       1.0  0.70273  0.03427  0.28740  1.0000
  C   C189      1.0  0.70254  0.97863  0.22096  1.0000
  C   C190      1.0  0.72072  0.95159  0.18073  1.0000
  C   C191      1.0  0.75617  0.95412  0.16781  1.0000
  H   H96       1.0  0.65293  0.95924  0.19922  1.0000
  O   O31       1.0  0.70437  0.92348  0.15033  1.0000
  O   O32       1.0  0.77250  0.92832  0.12566  1.0000
  N   N28       1.0  0.61458  0.00993  0.24519  1.0000
  H   H97       1.0  0.60137  0.98937  0.25656  1.0000
  N   N29       1.0  0.85725  0.02695  0.16545  1.0000
  H   H98       1.0  0.85832  0.04673  0.12672  1.0000
  C   C192      1.0  0.99720  0.57460  0.35166  1.0000
  C   C193      1.0  0.52737  0.56818  0.40052  1.0000
  C   C194      1.0  0.52742  0.54654  0.47500  1.0000
  C   C195      1.0  0.99721  0.53090  0.50704  1.0000
  C   C196      1.0  0.96748  0.53589  0.45475  1.0000
  C   C197      1.0  0.96733  0.55749  0.37989  1.0000
  C   C198      1.0  0.49798  0.00500  0.58297  1.0000
  C   C199      1.0  0.50243  0.97225  0.52924  1.0000
  C   C200      1.0  0.97410  0.95263  0.50028  1.0000
  C   C201      1.0  0.97813  0.92352  0.44691  1.0000
  C   C202      1.0  0.51067  0.91360  0.41646  1.0000
  C   C203      1.0  0.53884  0.93426  0.43853  1.0000
  C   C204      1.0  0.53468  0.96299  0.49346  1.0000
  C   C205      1.0  0.52571  0.51167  0.65226  1.0000
  C   C206      1.0  0.96676  0.00513  0.64372  1.0000
  C   C207      1.0  0.94808  0.53523  0.66254  1.0000
  H   H99       1.0  0.95407  0.55761  0.63149  1.0000
  H   H100      1.0  0.51864  0.56538  0.65922  1.0000
  H   H101      1.0  0.55583  0.97713  0.50790  1.0000
  H   H102      1.0  0.56283  0.92795  0.41749  1.0000
  H   H103      1.0  0.95695  0.90980  0.42968  1.0000
  H   H104      1.0  0.94987  0.95928  0.51794  1.0000
  H   H105      1.0  0.94529  0.52380  0.47120  1.0000
  H   H106      1.0  0.55023  0.54240  0.50592  1.0000
  H   H107      1.0  0.54981  0.57986  0.38491  1.0000
  H   H108      1.0  0.94485  0.56068  0.34634  1.0000
  C   C208      1.0  0.51496  0.88276  0.36843  1.0000
  C   C209      1.0  0.99557  0.59973  0.28244  1.0000
  C   C210      1.0  0.53696  0.66332  0.33638  1.0000
  N   N30       1.0  0.53445  0.69714  0.35167  1.0000
  C   C211      1.0  0.52077  0.79667  0.42647  1.0000
  C   C212      1.0  0.50834  0.82169  0.36748  1.0000
  H   H109      1.0  0.54514  0.64788  0.38681  1.0000
  N   N31       1.0  0.52565  0.76440  0.39783  1.0000
  H   H110      1.0  0.52593  0.80243  0.49149  1.0000
  N   N32       1.0  0.50087  0.85334  0.39929  1.0000
  H   H111      1.0  0.48886  0.85410  0.45625  1.0000
  H   H112      1.0  0.65669  0.05616  0.31811  1.0000
