data_image0
_chemical_formula_structural       NCH3NCH2NCHCH3NC18H12NC18H12C2NC2O2C2H3C2NC2O2C2H4C2NC2O2CH2NCH3NCH2NCHCH3NC18H12NC18H12C2NC2O2C2H3C2NC2O2C2H4C2NC2O2CH2NCH3NCH2NCHCH3NC18H12NC18H12C2NC2O2C2H3C2NC2O2C2H4C2NC2O2CH2NCH3NCH2NCHCH3NC18H12NC18H12C2NC2O2C2H3C2NC2O2C2H4C2NC2O2CH2
_chemical_formula_sum              "N32 C228 H168 O24"
_cell_length_a       50.2828
_cell_length_b       50.283
_cell_length_c       14.6085
_cell_angle_alpha    90
_cell_angle_beta     90
_cell_angle_gamma    120

_space_group_name_H-M_alt    "P 1"
_space_group_IT_number       1

loop_
  _space_group_symop_operation_xyz
  'x, y, z'

loop_
  _atom_site_type_symbol
  _atom_site_label
  _atom_site_symmetry_multiplicity
  _atom_site_fract_x
  _atom_site_fract_y
  _atom_site_fract_z
  _atom_site_occupancy
  N   N1        1.0  0.27491  0.25777  0.28256  1.0000
  C   C1        1.0  0.25988  0.27390  0.27313  1.0000
  H   H1        1.0  0.25726  0.28011  0.20880  1.0000
  H   H2        1.0  0.29688  0.24718  0.03189  1.0000
  H   H3        1.0  0.34430  0.24354  0.03777  1.0000
  N   N2        1.0  0.26729  0.03097  0.29380  1.0000
  C   C2        1.0  0.25085  0.49990  0.28301  1.0000
  H   H4        1.0  0.24172  0.49155  0.22015  1.0000
  H   H5        1.0  0.33504  0.05827  0.00341  1.0000
  N   N3        1.0  0.49601  0.25385  0.29276  1.0000
  C   C3        1.0  0.02712  0.26882  0.28212  1.0000
  H   H6        1.0  0.03565  0.27168  0.21733  1.0000
  C   C4        1.0  0.44628  0.18835  0.01567  1.0000
  H   H7        1.0  0.47495  0.23653  0.04462  1.0000
  H   H8        1.0  0.42496  0.18910  0.01511  1.0000
  H   H9        1.0  0.44938  0.18119  0.08350  1.0000
  N   N4        1.0  0.18014  0.34675  0.35661  1.0000
  C   C5        1.0  0.19678  0.33036  0.35449  1.0000
  C   C6        1.0  0.19665  0.37980  0.35647  1.0000
  C   C7        1.0  0.14708  0.33020  0.35713  1.0000
  C   C8        1.0  0.13020  0.33001  0.43471  1.0000
  C   C9        1.0  0.09767  0.31377  0.43495  1.0000
  C   C10       1.0  0.08009  0.29701  0.35756  1.0000
  C   C11       1.0  0.09746  0.29736  0.28017  1.0000
  C   C12       1.0  0.12998  0.31343  0.27995  1.0000
  C   C13       1.0  0.21366  0.33082  0.27656  1.0000
  C   C14       1.0  0.23011  0.31475  0.27476  1.0000
  C   C15       1.0  0.23076  0.29742  0.35082  1.0000
  C   C16       1.0  0.21382  0.29740  0.42891  1.0000
  C   C17       1.0  0.19722  0.31330  0.43070  1.0000
  C   C18       1.0  0.21431  0.39682  0.43252  1.0000
  C   C19       1.0  0.23058  0.42934  0.43211  1.0000
  C   C20       1.0  0.23028  0.44678  0.35576  1.0000
  C   C21       1.0  0.21235  0.42922  0.27984  1.0000
  C   C22       1.0  0.19601  0.39670  0.28012  1.0000
  H   H10       1.0  0.24214  0.31643  0.21669  1.0000
  H   H11       1.0  0.21404  0.34303  0.22010  1.0000
  H   H12       1.0  0.18542  0.31249  0.48861  1.0000
  H   H13       1.0  0.21310  0.28538  0.48625  1.0000
  H   H14       1.0  0.14169  0.34180  0.49211  1.0000
  H   H15       1.0  0.08686  0.31470  0.49314  1.0000
  H   H16       1.0  0.21534  0.38546  0.48926  1.0000
  H   H17       1.0  0.24293  0.44022  0.48939  1.0000
  H   H18       1.0  0.21059  0.43984  0.22257  1.0000
  H   H19       1.0  0.18351  0.38524  0.22365  1.0000
  H   H20       1.0  0.14132  0.31291  0.22245  1.0000
  H   H21       1.0  0.08663  0.28541  0.22244  1.0000
  N   N5        1.0  0.34671  0.18010  0.35635  1.0000
  C   C23       1.0  0.32934  0.19603  0.35609  1.0000
  C   C24       1.0  0.33100  0.14698  0.36065  1.0000
  C   C25       1.0  0.37987  0.19709  0.36169  1.0000
  C   C26       1.0  0.39560  0.21889  0.43150  1.0000
  C   C27       1.0  0.42811  0.23612  0.43467  1.0000
  C   C28       1.0  0.44697  0.23173  0.37096  1.0000
  C   C29       1.0  0.43085  0.21014  0.30026  1.0000
  C   C30       1.0  0.39838  0.19359  0.29520  1.0000
  C   C31       1.0  0.30596  0.18960  0.42102  1.0000
  C   C32       1.0  0.28918  0.20525  0.42089  1.0000
  C   C33       1.0  0.29597  0.22978  0.35992  1.0000
  C   C34       1.0  0.31902  0.23579  0.29360  1.0000
  C   C35       1.0  0.33502  0.21921  0.29120  1.0000
  C   C36       1.0  0.31985  0.13106  0.44423  1.0000
  C   C37       1.0  0.30281  0.09863  0.44773  1.0000
  C   C38       1.0  0.29794  0.07994  0.36951  1.0000
  C   C39       1.0  0.30956  0.09628  0.28592  1.0000
  C   C40       1.0  0.32521  0.12878  0.28132  1.0000
  H   H22       1.0  0.27148  0.19808  0.46632  1.0000
  H   H23       1.0  0.30035  0.17289  0.46882  1.0000
  H   H24       1.0  0.35164  0.22477  0.24270  1.0000
  H   H25       1.0  0.32486  0.25291  0.24660  1.0000
  H   H26       1.0  0.38328  0.22291  0.47968  1.0000
  H   H27       1.0  0.43782  0.25257  0.48402  1.0000
  H   H28       1.0  0.32334  0.14316  0.50352  1.0000
  H   H29       1.0  0.29325  0.08890  0.50903  1.0000
  H   H30       1.0  0.30669  0.08453  0.22618  1.0000
  H   H31       1.0  0.33253  0.13924  0.21908  1.0000
  H   H32       1.0  0.38822  0.17855  0.24235  1.0000
  H   H33       1.0  0.44274  0.20592  0.25109  1.0000
  C   C41       1.0  0.27986  0.24708  0.36304  1.0000
  C   C42       1.0  0.24760  0.28082  0.35088  1.0000
  N   N6        1.0  0.25294  0.27036  0.43095  1.0000
  C   C43       1.0  0.26798  0.25420  0.44251  1.0000
  C   C44       1.0  0.27203  0.24738  0.53168  1.0000
  O   O1        1.0  0.25309  0.24505  0.58884  1.0000
  O   O2        1.0  0.30117  0.25874  0.55966  1.0000
  C   C45       1.0  0.30585  0.24300  0.63527  1.0000
  C   C46       1.0  0.34045  0.25514  0.64711  1.0000
  H   H34       1.0  0.29444  0.21821  0.62346  1.0000
  H   H35       1.0  0.34983  0.25087  0.58503  1.0000
  H   H36       1.0  0.35245  0.27979  0.66062  1.0000
  C   C47       1.0  0.28143  0.04640  0.37223  1.0000
  C   C48       1.0  0.24715  0.48027  0.35737  1.0000
  N   N7        1.0  0.26159  0.49573  0.43518  1.0000
  C   C49       1.0  0.27813  0.02690  0.44792  1.0000
  C   C50       1.0  0.29186  0.03708  0.53280  1.0000
  O   O3        1.0  0.27907  0.02059  0.59903  1.0000
  O   O4        1.0  0.32271  0.05293  0.53181  1.0000
  C   C51       1.0  0.33743  0.07234  0.61015  1.0000
  C   C52       1.0  0.37181  0.09337  0.58962  1.0000
  H   H37       1.0  0.32752  0.08683  0.62623  1.0000
  H   H38       1.0  0.38255  0.07959  0.57499  1.0000
  H   H39       1.0  0.38324  0.10805  0.64855  1.0000
  H   H40       1.0  0.37472  0.10788  0.53053  1.0000
  C   C53       1.0  0.48049  0.24845  0.37372  1.0000
  C   C54       1.0  0.04662  0.28058  0.35942  1.0000
  N   N8        1.0  0.03114  0.27509  0.44027  1.0000
  C   C55       1.0  0.50000  0.26012  0.45224  1.0000
  C   C56       1.0  0.49108  0.25686  0.54259  1.0000
  O   O5        1.0  0.49052  0.27902  0.57491  1.0000
  O   O6        1.0  0.46900  0.22902  0.56941  1.0000
  C   C57       1.0  0.47364  0.22023  0.65926  1.0000
  H   H41       1.0  0.49478  0.21904  0.66131  1.0000
  H   H42       1.0  0.44458  0.17148  0.63213  1.0000
  N   N9        1.0  0.27490  0.75777  0.28256  1.0000
  C   C58       1.0  0.25988  0.77390  0.27313  1.0000
  H   H43       1.0  0.25726  0.78011  0.20880  1.0000
  H   H44       1.0  0.29688  0.74718  0.03189  1.0000
  H   H45       1.0  0.34430  0.74354  0.03778  1.0000
  N   N10       1.0  0.26729  0.53097  0.29380  1.0000
  C   C59       1.0  0.25085  0.99990  0.28301  1.0000
  H   H46       1.0  0.24172  0.99155  0.22015  1.0000
  H   H47       1.0  0.33503  0.55827  0.00341  1.0000
  N   N11       1.0  0.49601  0.75385  0.29276  1.0000
  C   C60       1.0  0.02712  0.76882  0.28212  1.0000
  H   H48       1.0  0.03565  0.77168  0.21733  1.0000
  C   C61       1.0  0.44629  0.68835  0.01567  1.0000
  H   H49       1.0  0.47494  0.73652  0.04462  1.0000
  H   H50       1.0  0.42496  0.68910  0.01511  1.0000
  H   H51       1.0  0.44938  0.68119  0.08349  1.0000
  N   N12       1.0  0.18014  0.84675  0.35661  1.0000
  C   C62       1.0  0.19678  0.83036  0.35449  1.0000
  C   C63       1.0  0.19665  0.87980  0.35647  1.0000
  C   C64       1.0  0.14708  0.83020  0.35713  1.0000
  C   C65       1.0  0.13020  0.83001  0.43471  1.0000
  C   C66       1.0  0.09767  0.81377  0.43495  1.0000
  C   C67       1.0  0.08009  0.79701  0.35756  1.0000
  C   C68       1.0  0.09746  0.79736  0.28017  1.0000
  C   C69       1.0  0.12998  0.81343  0.27995  1.0000
  C   C70       1.0  0.21366  0.83082  0.27656  1.0000
  C   C71       1.0  0.23011  0.81475  0.27476  1.0000
  C   C72       1.0  0.23076  0.79742  0.35082  1.0000
  C   C73       1.0  0.21382  0.79740  0.42891  1.0000
  C   C74       1.0  0.19722  0.81330  0.43070  1.0000
  C   C75       1.0  0.21431  0.89682  0.43252  1.0000
  C   C76       1.0  0.23058  0.92934  0.43210  1.0000
  C   C77       1.0  0.23027  0.94678  0.35576  1.0000
  C   C78       1.0  0.21235  0.92922  0.27984  1.0000
  C   C79       1.0  0.19601  0.89670  0.28012  1.0000
  H   H52       1.0  0.24214  0.81643  0.21669  1.0000
  H   H53       1.0  0.21404  0.84303  0.22010  1.0000
  H   H54       1.0  0.18542  0.81249  0.48861  1.0000
  H   H55       1.0  0.21309  0.78538  0.48625  1.0000
  H   H56       1.0  0.14169  0.84180  0.49211  1.0000
  H   H57       1.0  0.08686  0.81470  0.49314  1.0000
  H   H58       1.0  0.21534  0.88546  0.48926  1.0000
  H   H59       1.0  0.24293  0.94022  0.48939  1.0000
  H   H60       1.0  0.21059  0.93984  0.22257  1.0000
  H   H61       1.0  0.18351  0.88524  0.22364  1.0000
  H   H62       1.0  0.14132  0.81291  0.22245  1.0000
  H   H63       1.0  0.08663  0.78541  0.22244  1.0000
  N   N13       1.0  0.34671  0.68010  0.35635  1.0000
  C   C80       1.0  0.32934  0.69603  0.35609  1.0000
  C   C81       1.0  0.33100  0.64698  0.36065  1.0000
  C   C82       1.0  0.37987  0.69709  0.36169  1.0000
  C   C83       1.0  0.39561  0.71889  0.43150  1.0000
  C   C84       1.0  0.42811  0.73612  0.43467  1.0000
  C   C85       1.0  0.44697  0.73174  0.37096  1.0000
  C   C86       1.0  0.43085  0.71015  0.30026  1.0000
  C   C87       1.0  0.39838  0.69359  0.29520  1.0000
  C   C88       1.0  0.30596  0.68961  0.42101  1.0000
  C   C89       1.0  0.28918  0.70525  0.42089  1.0000
  C   C90       1.0  0.29597  0.72978  0.35992  1.0000
  C   C91       1.0  0.31902  0.73579  0.29361  1.0000
  C   C92       1.0  0.33502  0.71921  0.29121  1.0000
  C   C93       1.0  0.31985  0.63106  0.44423  1.0000
  C   C94       1.0  0.30281  0.59863  0.44773  1.0000
  C   C95       1.0  0.29794  0.57994  0.36951  1.0000
  C   C96       1.0  0.30956  0.59628  0.28592  1.0000
  C   C97       1.0  0.32521  0.62878  0.28132  1.0000
  H   H64       1.0  0.27148  0.69808  0.46632  1.0000
  H   H65       1.0  0.30035  0.67289  0.46882  1.0000
  H   H66       1.0  0.35165  0.72477  0.24270  1.0000
  H   H67       1.0  0.32486  0.75291  0.24660  1.0000
  H   H68       1.0  0.38328  0.72291  0.47968  1.0000
  H   H69       1.0  0.43782  0.75257  0.48402  1.0000
  H   H70       1.0  0.32334  0.64316  0.50352  1.0000
  H   H71       1.0  0.29325  0.58890  0.50903  1.0000
  H   H72       1.0  0.30669  0.58453  0.22618  1.0000
  H   H73       1.0  0.33253  0.63924  0.21908  1.0000
  H   H74       1.0  0.38822  0.67855  0.24235  1.0000
  H   H75       1.0  0.44274  0.70592  0.25109  1.0000
  C   C98       1.0  0.27986  0.74708  0.36304  1.0000
  C   C99       1.0  0.24760  0.78082  0.35088  1.0000
  N   N14       1.0  0.25293  0.77036  0.43095  1.0000
  C   C100      1.0  0.26798  0.75420  0.44251  1.0000
  C   C101      1.0  0.27202  0.74738  0.53168  1.0000
  O   O7        1.0  0.25308  0.74505  0.58884  1.0000
  O   O8        1.0  0.30117  0.75874  0.55966  1.0000
  C   C102      1.0  0.30585  0.74300  0.63527  1.0000
  C   C103      1.0  0.34045  0.75514  0.64711  1.0000
  H   H76       1.0  0.29444  0.71821  0.62346  1.0000
  H   H77       1.0  0.34983  0.75087  0.58504  1.0000
  H   H78       1.0  0.35245  0.77979  0.66063  1.0000
  C   C104      1.0  0.28143  0.54640  0.37223  1.0000
  C   C105      1.0  0.24715  0.98027  0.35737  1.0000
  N   N15       1.0  0.26159  0.99573  0.43518  1.0000
  C   C106      1.0  0.27813  0.52690  0.44792  1.0000
  C   C107      1.0  0.29186  0.53708  0.53280  1.0000
  O   O9        1.0  0.27907  0.52059  0.59903  1.0000
  O   O10       1.0  0.32271  0.55293  0.53181  1.0000
  C   C108      1.0  0.33743  0.57234  0.61015  1.0000
  C   C109      1.0  0.37181  0.59337  0.58962  1.0000
  H   H79       1.0  0.32752  0.58684  0.62623  1.0000
  H   H80       1.0  0.38255  0.57959  0.57499  1.0000
  H   H81       1.0  0.38324  0.60805  0.64855  1.0000
  H   H82       1.0  0.37472  0.60788  0.53052  1.0000
  C   C110      1.0  0.48049  0.74845  0.37372  1.0000
  C   C111      1.0  0.04662  0.78058  0.35942  1.0000
  N   N16       1.0  0.03114  0.77509  0.44027  1.0000
  C   C112      1.0  0.50000  0.76012  0.45224  1.0000
  C   C113      1.0  0.49108  0.75686  0.54259  1.0000
  O   O11       1.0  0.49052  0.77902  0.57491  1.0000
  O   O12       1.0  0.46900  0.72902  0.56940  1.0000
  C   C114      1.0  0.47364  0.72023  0.65925  1.0000
  H   H83       1.0  0.49478  0.71904  0.66131  1.0000
  H   H84       1.0  0.44458  0.67148  0.63212  1.0000
  N   N17       1.0  0.77491  0.25777  0.28256  1.0000
  C   C115      1.0  0.75988  0.27390  0.27313  1.0000
  H   H85       1.0  0.75726  0.28011  0.20880  1.0000
  H   H86       1.0  0.79689  0.24718  0.03189  1.0000
  H   H87       1.0  0.84430  0.24354  0.03777  1.0000
  N   N18       1.0  0.76729  0.03097  0.29380  1.0000
  C   C116      1.0  0.75085  0.49990  0.28301  1.0000
  H   H88       1.0  0.74172  0.49155  0.22015  1.0000
  H   H89       1.0  0.83504  0.05827  0.00341  1.0000
  N   N19       1.0  0.99601  0.25385  0.29276  1.0000
  C   C117      1.0  0.52712  0.26882  0.28212  1.0000
  H   H90       1.0  0.53565  0.27168  0.21733  1.0000
  C   C118      1.0  0.94629  0.18835  0.01567  1.0000
  H   H91       1.0  0.97494  0.23653  0.04462  1.0000
  H   H92       1.0  0.92496  0.18910  0.01511  1.0000
  H   H93       1.0  0.94938  0.18119  0.08350  1.0000
  N   N20       1.0  0.68014  0.34675  0.35661  1.0000
  C   C119      1.0  0.69678  0.33036  0.35449  1.0000
  C   C120      1.0  0.69665  0.37980  0.35647  1.0000
  C   C121      1.0  0.64708  0.33020  0.35713  1.0000
  C   C122      1.0  0.63020  0.33001  0.43471  1.0000
  C   C123      1.0  0.59767  0.31377  0.43495  1.0000
  C   C124      1.0  0.58009  0.29701  0.35756  1.0000
  C   C125      1.0  0.59746  0.29736  0.28017  1.0000
  C   C126      1.0  0.62999  0.31343  0.27995  1.0000
  C   C127      1.0  0.71366  0.33082  0.27656  1.0000
  C   C128      1.0  0.73011  0.31475  0.27476  1.0000
  C   C129      1.0  0.73076  0.29742  0.35082  1.0000
  C   C130      1.0  0.71383  0.29740  0.42891  1.0000
  C   C131      1.0  0.69722  0.31330  0.43070  1.0000
  C   C132      1.0  0.71431  0.39682  0.43252  1.0000
  C   C133      1.0  0.73058  0.42934  0.43211  1.0000
  C   C134      1.0  0.73028  0.44678  0.35576  1.0000
  C   C135      1.0  0.71235  0.42922  0.27984  1.0000
  C   C136      1.0  0.69601  0.39670  0.28012  1.0000
  H   H94       1.0  0.74214  0.31643  0.21669  1.0000
  H   H95       1.0  0.71404  0.34303  0.22010  1.0000
  H   H96       1.0  0.68542  0.31249  0.48861  1.0000
  H   H97       1.0  0.71310  0.28538  0.48625  1.0000
  H   H98       1.0  0.64169  0.34180  0.49211  1.0000
  H   H99       1.0  0.58686  0.31470  0.49314  1.0000
  H   H100      1.0  0.71534  0.38546  0.48926  1.0000
  H   H101      1.0  0.74293  0.44022  0.48939  1.0000
  H   H102      1.0  0.71059  0.43984  0.22257  1.0000
  H   H103      1.0  0.68351  0.38524  0.22365  1.0000
  H   H104      1.0  0.64132  0.31291  0.22245  1.0000
  H   H105      1.0  0.58663  0.28541  0.22244  1.0000
  N   N21       1.0  0.84671  0.18010  0.35635  1.0000
  C   C137      1.0  0.82934  0.19603  0.35609  1.0000
  C   C138      1.0  0.83100  0.14698  0.36065  1.0000
  C   C139      1.0  0.87988  0.19709  0.36169  1.0000
  C   C140      1.0  0.89561  0.21889  0.43150  1.0000
  C   C141      1.0  0.92811  0.23612  0.43467  1.0000
  C   C142      1.0  0.94697  0.23173  0.37096  1.0000
  C   C143      1.0  0.93085  0.21014  0.30026  1.0000
  C   C144      1.0  0.89838  0.19359  0.29520  1.0000
  C   C145      1.0  0.80597  0.18960  0.42102  1.0000
  C   C146      1.0  0.78918  0.20525  0.42089  1.0000
  C   C147      1.0  0.79597  0.22978  0.35992  1.0000
  C   C148      1.0  0.81902  0.23579  0.29360  1.0000
  C   C149      1.0  0.83502  0.21921  0.29120  1.0000
  C   C150      1.0  0.81985  0.13106  0.44423  1.0000
  C   C151      1.0  0.80281  0.09863  0.44773  1.0000
  C   C152      1.0  0.79794  0.07994  0.36951  1.0000
  C   C153      1.0  0.80956  0.09628  0.28592  1.0000
  C   C154      1.0  0.82521  0.12878  0.28132  1.0000
  H   H106      1.0  0.77149  0.19808  0.46632  1.0000
  H   H107      1.0  0.80035  0.17289  0.46882  1.0000
  H   H108      1.0  0.85165  0.22477  0.24270  1.0000
  H   H109      1.0  0.82486  0.25291  0.24660  1.0000
  H   H110      1.0  0.88328  0.22291  0.47968  1.0000
  H   H111      1.0  0.93782  0.25257  0.48402  1.0000
  H   H112      1.0  0.82334  0.14316  0.50352  1.0000
  H   H113      1.0  0.79325  0.08890  0.50903  1.0000
  H   H114      1.0  0.80669  0.08453  0.22618  1.0000
  H   H115      1.0  0.83253  0.13924  0.21908  1.0000
  H   H116      1.0  0.88822  0.17855  0.24235  1.0000
  H   H117      1.0  0.94274  0.20592  0.25109  1.0000
  C   C155      1.0  0.77986  0.24708  0.36304  1.0000
  C   C156      1.0  0.74760  0.28082  0.35088  1.0000
  N   N22       1.0  0.75294  0.27036  0.43095  1.0000
  C   C157      1.0  0.76799  0.25420  0.44251  1.0000
  C   C158      1.0  0.77203  0.24738  0.53168  1.0000
  O   O13       1.0  0.75309  0.24505  0.58884  1.0000
  O   O14       1.0  0.80117  0.25874  0.55966  1.0000
  C   C159      1.0  0.80585  0.24300  0.63527  1.0000
  C   C160      1.0  0.84046  0.25514  0.64711  1.0000
  H   H118      1.0  0.79444  0.21821  0.62346  1.0000
  H   H119      1.0  0.84983  0.25087  0.58503  1.0000
  H   H120      1.0  0.85246  0.27979  0.66062  1.0000
  C   C161      1.0  0.78143  0.04640  0.37223  1.0000
  C   C162      1.0  0.74715  0.48027  0.35737  1.0000
  N   N23       1.0  0.76159  0.49573  0.43518  1.0000
  C   C163      1.0  0.77813  0.02690  0.44792  1.0000
  C   C164      1.0  0.79186  0.03708  0.53280  1.0000
  O   O15       1.0  0.77907  0.02059  0.59903  1.0000
  O   O16       1.0  0.82271  0.05293  0.53181  1.0000
  C   C165      1.0  0.83743  0.07234  0.61015  1.0000
  C   C166      1.0  0.87181  0.09337  0.58962  1.0000
  H   H121      1.0  0.82752  0.08683  0.62623  1.0000
  H   H122      1.0  0.88255  0.07959  0.57499  1.0000
  H   H123      1.0  0.88324  0.10805  0.64855  1.0000
  H   H124      1.0  0.87472  0.10788  0.53053  1.0000
  C   C167      1.0  0.98049  0.24845  0.37372  1.0000
  C   C168      1.0  0.54663  0.28058  0.35942  1.0000
  N   N24       1.0  0.53114  0.27509  0.44027  1.0000
  C   C169      1.0  0.99999  0.26012  0.45224  1.0000
  C   C170      1.0  0.99108  0.25686  0.54259  1.0000
  O   O17       1.0  0.99052  0.27902  0.57491  1.0000
  O   O18       1.0  0.96900  0.22902  0.56941  1.0000
  C   C171      1.0  0.97364  0.22023  0.65926  1.0000
  H   H125      1.0  0.99478  0.21904  0.66131  1.0000
  H   H126      1.0  0.94458  0.17148  0.63213  1.0000
  N   N25       1.0  0.77490  0.75777  0.28256  1.0000
  C   C172      1.0  0.75988  0.77390  0.27313  1.0000
  H   H127      1.0  0.75726  0.78011  0.20880  1.0000
  H   H128      1.0  0.79688  0.74718  0.03189  1.0000
  H   H129      1.0  0.84430  0.74354  0.03778  1.0000
  N   N26       1.0  0.76729  0.53097  0.29380  1.0000
  C   C173      1.0  0.75085  0.99990  0.28301  1.0000
  H   H130      1.0  0.74172  0.99155  0.22015  1.0000
  H   H131      1.0  0.83503  0.55827  0.00341  1.0000
  N   N27       1.0  0.99601  0.75385  0.29276  1.0000
  C   C174      1.0  0.52712  0.76882  0.28212  1.0000
  H   H132      1.0  0.53565  0.77168  0.21733  1.0000
  C   C175      1.0  0.94629  0.68835  0.01567  1.0000
  H   H133      1.0  0.97494  0.73652  0.04462  1.0000
  H   H134      1.0  0.92496  0.68910  0.01511  1.0000
  H   H135      1.0  0.94938  0.68119  0.08349  1.0000
  N   N28       1.0  0.68014  0.84675  0.35661  1.0000
  C   C176      1.0  0.69679  0.83036  0.35449  1.0000
  C   C177      1.0  0.69665  0.87980  0.35647  1.0000
  C   C178      1.0  0.64708  0.83020  0.35713  1.0000
  C   C179      1.0  0.63021  0.83001  0.43471  1.0000
  C   C180      1.0  0.59767  0.81377  0.43495  1.0000
  C   C181      1.0  0.58009  0.79701  0.35756  1.0000
  C   C182      1.0  0.59746  0.79736  0.28017  1.0000
  C   C183      1.0  0.62999  0.81343  0.27995  1.0000
  C   C184      1.0  0.71366  0.83082  0.27656  1.0000
  C   C185      1.0  0.73011  0.81475  0.27476  1.0000
  C   C186      1.0  0.73076  0.79742  0.35082  1.0000
  C   C187      1.0  0.71382  0.79740  0.42891  1.0000
  C   C188      1.0  0.69722  0.81330  0.43070  1.0000
  C   C189      1.0  0.71431  0.89682  0.43252  1.0000
  C   C190      1.0  0.73058  0.92934  0.43210  1.0000
  C   C191      1.0  0.73028  0.94678  0.35576  1.0000
  C   C192      1.0  0.71235  0.92922  0.27984  1.0000
  C   C193      1.0  0.69601  0.89670  0.28012  1.0000
  H   H136      1.0  0.74214  0.81643  0.21669  1.0000
  H   H137      1.0  0.71404  0.84303  0.22010  1.0000
  H   H138      1.0  0.68542  0.81249  0.48861  1.0000
  H   H139      1.0  0.71309  0.78538  0.48625  1.0000
  H   H140      1.0  0.64169  0.84180  0.49211  1.0000
  H   H141      1.0  0.58686  0.81470  0.49314  1.0000
  H   H142      1.0  0.71534  0.88546  0.48926  1.0000
  H   H143      1.0  0.74293  0.94022  0.48939  1.0000
  H   H144      1.0  0.71059  0.93984  0.22257  1.0000
  H   H145      1.0  0.68351  0.88524  0.22364  1.0000
  H   H146      1.0  0.64132  0.81291  0.22245  1.0000
  H   H147      1.0  0.58663  0.78541  0.22244  1.0000
  N   N29       1.0  0.84671  0.68010  0.35635  1.0000
  C   C194      1.0  0.82934  0.69603  0.35609  1.0000
  C   C195      1.0  0.83100  0.64698  0.36065  1.0000
  C   C196      1.0  0.87987  0.69709  0.36169  1.0000
  C   C197      1.0  0.89561  0.71889  0.43150  1.0000
  C   C198      1.0  0.92811  0.73612  0.43467  1.0000
  C   C199      1.0  0.94697  0.73174  0.37096  1.0000
  C   C200      1.0  0.93085  0.71015  0.30026  1.0000
  C   C201      1.0  0.89838  0.69359  0.29520  1.0000
  C   C202      1.0  0.80597  0.68961  0.42101  1.0000
  C   C203      1.0  0.78918  0.70525  0.42089  1.0000
  C   C204      1.0  0.79597  0.72978  0.35992  1.0000
  C   C205      1.0  0.81902  0.73579  0.29361  1.0000
  C   C206      1.0  0.83502  0.71921  0.29121  1.0000
  C   C207      1.0  0.81985  0.63106  0.44423  1.0000
  C   C208      1.0  0.80281  0.59863  0.44773  1.0000
  C   C209      1.0  0.79794  0.57994  0.36951  1.0000
  C   C210      1.0  0.80956  0.59628  0.28592  1.0000
  C   C211      1.0  0.82520  0.62878  0.28132  1.0000
  H   H148      1.0  0.77148  0.69808  0.46632  1.0000
  H   H149      1.0  0.80035  0.67289  0.46882  1.0000
  H   H150      1.0  0.85165  0.72477  0.24270  1.0000
  H   H151      1.0  0.82486  0.75291  0.24660  1.0000
  H   H152      1.0  0.88328  0.72291  0.47968  1.0000
  H   H153      1.0  0.93782  0.75257  0.48402  1.0000
  H   H154      1.0  0.82334  0.64316  0.50352  1.0000
  H   H155      1.0  0.79325  0.58890  0.50903  1.0000
  H   H156      1.0  0.80669  0.58453  0.22618  1.0000
  H   H157      1.0  0.83253  0.63924  0.21908  1.0000
  H   H158      1.0  0.88822  0.67855  0.24235  1.0000
  H   H159      1.0  0.94274  0.70592  0.25109  1.0000
  C   C212      1.0  0.77986  0.74708  0.36304  1.0000
  C   C213      1.0  0.74760  0.78082  0.35088  1.0000
  N   N30       1.0  0.75293  0.77036  0.43095  1.0000
  C   C214      1.0  0.76799  0.75420  0.44251  1.0000
  C   C215      1.0  0.77202  0.74738  0.53168  1.0000
  O   O19       1.0  0.75308  0.74505  0.58884  1.0000
  O   O20       1.0  0.80117  0.75874  0.55966  1.0000
  C   C216      1.0  0.80585  0.74300  0.63527  1.0000
  C   C217      1.0  0.84045  0.75514  0.64711  1.0000
  H   H160      1.0  0.79444  0.71821  0.62346  1.0000
  H   H161      1.0  0.84983  0.75087  0.58504  1.0000
  H   H162      1.0  0.85245  0.77979  0.66063  1.0000
  C   C218      1.0  0.78143  0.54640  0.37223  1.0000
  C   C219      1.0  0.74715  0.98027  0.35737  1.0000
  N   N31       1.0  0.76159  0.99573  0.43518  1.0000
  C   C220      1.0  0.77813  0.52690  0.44792  1.0000
  C   C221      1.0  0.79186  0.53708  0.53280  1.0000
  O   O21       1.0  0.77907  0.52059  0.59903  1.0000
  O   O22       1.0  0.82271  0.55293  0.53181  1.0000
  C   C222      1.0  0.83743  0.57234  0.61015  1.0000
  C   C223      1.0  0.87181  0.59337  0.58962  1.0000
  H   H163      1.0  0.82752  0.58684  0.62623  1.0000
  H   H164      1.0  0.88255  0.57959  0.57499  1.0000
  H   H165      1.0  0.88324  0.60805  0.64855  1.0000
  H   H166      1.0  0.87472  0.60788  0.53052  1.0000
  C   C224      1.0  0.98049  0.74845  0.37372  1.0000
  C   C225      1.0  0.54662  0.78058  0.35942  1.0000
  N   N32       1.0  0.53114  0.77509  0.44027  1.0000
  C   C226      1.0  1.00000  0.76012  0.45224  1.0000
  C   C227      1.0  0.99108  0.75686  0.54259  1.0000
  O   O23       1.0  0.99052  0.77902  0.57491  1.0000
  O   O24       1.0  0.96900  0.72902  0.56940  1.0000
  C   C228      1.0  0.97364  0.72023  0.65925  1.0000
  H   H167      1.0  0.99478  0.71904  0.66131  1.0000
  H   H168      1.0  0.94458  0.67148  0.63212  1.0000
