data_image0
_chemical_formula_structural       C2HC3HNH2NO2C2HC3HNH2NO2C2HC3HNH2NO2C7H2NH2NO2C7H2NH2NO2C7H2NH2NO2CNCNCNCNCNCNCNCNCNCNCNCNC7H2NH2NO2C7H2NH2NO2C7H2NH2NO2C2HC3HNH2NO2C2HC3HNH2NO2C2HC3HNH2NO2
_chemical_formula_sum              "C84 H48 N36 O24"
_cell_length_a       34.3229
_cell_length_b       34.3253
_cell_length_c       14.8357
_cell_angle_alpha    90
_cell_angle_beta     90
_cell_angle_gamma    120.007

_space_group_name_H-M_alt    "P 1"
_space_group_IT_number       1

loop_
  _space_group_symop_operation_xyz
  'x, y, z'

loop_
  _atom_site_type_symbol
  _atom_site_label
  _atom_site_symmetry_multiplicity
  _atom_site_fract_x
  _atom_site_fract_y
  _atom_site_fract_z
  _atom_site_occupancy
  C   C1        1.0  0.27026  0.10085  0.30935  1.0000
  C   C2        1.0  0.31800  0.12596  0.31177  1.0000
  H   H1        1.0  0.33510  0.11095  0.28702  1.0000
  C   C3        1.0  0.09971  0.05143  0.34352  1.0000
  C   C4        1.0  0.12566  0.09126  0.29239  1.0000
  C   C5        1.0  0.17335  0.11309  0.29444  1.0000
  H   H2        1.0  0.19127  0.14103  0.25507  1.0000
  N   N1        1.0  0.25003  0.05878  0.27300  1.0000
  H   H3        1.0  0.26758  0.04596  0.24909  1.0000
  H   H4        1.0  0.21763  0.04094  0.26555  1.0000
  N   N2        1.0  0.10367  0.10781  0.23658  1.0000
  O   O1        1.0  0.11325  0.10776  0.15483  1.0000
  O   O2        1.0  0.11343  0.14701  0.25870  1.0000
  C   C6        1.0  0.90794  0.17226  0.30937  1.0000
  C   C7        1.0  0.88282  0.19488  0.31181  1.0000
  H   H5        1.0  0.89782  0.22699  0.28704  1.0000
  C   C8        1.0  0.95737  0.05115  0.34352  1.0000
  C   C9        1.0  0.91752  0.03725  0.29242  1.0000
  C   C10       1.0  0.89570  0.06312  0.29448  1.0000
  H   H6        1.0  0.86774  0.05307  0.25513  1.0000
  N   N3        1.0  0.95001  0.19413  0.27298  1.0000
  H   H7        1.0  0.96282  0.22449  0.24906  1.0000
  H   H8        1.0  0.96785  0.17958  0.26551  1.0000
  N   N4        1.0  0.90095  0.99869  0.23666  1.0000
  O   O3        1.0  0.90097  0.00830  0.15490  1.0000
  O   O4        1.0  0.86175  0.96926  0.25883  1.0000
  C   C11       1.0  0.83654  0.73851  0.30937  1.0000
  C   C12       1.0  0.81393  0.69077  0.31181  1.0000
  H   H9        1.0  0.78181  0.67364  0.28706  1.0000
  C   C13       1.0  0.95763  0.90907  0.34351  1.0000
  C   C14       1.0  0.97153  0.88314  0.29240  1.0000
  C   C15       1.0  0.94567  0.83544  0.29446  1.0000
  H   H10       1.0  0.95572  0.81754  0.25512  1.0000
  N   N5        1.0  0.81466  0.75870  0.27300  1.0000
  H   H11       1.0  0.78429  0.74113  0.24909  1.0000
  H   H12       1.0  0.82920  0.79109  0.26554  1.0000
  N   N6        1.0  0.01008  0.90513  0.23661  1.0000
  O   O5        1.0  0.00047  0.89554  0.15486  1.0000
  O   O6        1.0  0.03953  0.89538  0.25877  1.0000
  C   C16       1.0  0.69982  0.18765  0.36121  1.0000
  C   C17       1.0  0.66707  0.14825  0.31641  1.0000
  C   C18       1.0  0.62161  0.13832  0.31369  1.0000
  C   C19       1.0  0.60790  0.16696  0.35368  1.0000
  C   C20       1.0  0.56394  0.16007  0.33585  1.0000
  C   C21       1.0  0.55530  0.17832  0.25715  1.0000
  C   C22       1.0  0.51591  0.18181  0.25404  1.0000
  H   H13       1.0  0.51153  0.19810  0.20042  1.0000
  H   H14       1.0  0.59877  0.11108  0.27720  1.0000
  N   N7        1.0  0.58469  0.19529  0.18687  1.0000
  H   H15       1.0  0.61249  0.19436  0.18559  1.0000
  H   H16       1.0  0.57835  0.20819  0.13430  1.0000
  N   N8        1.0  0.68076  0.12112  0.26983  1.0000
  O   O7        1.0  0.67341  0.12017  0.18665  1.0000
  O   O8        1.0  0.66087  0.08153  0.29943  1.0000
  C   C23       1.0  0.82119  0.51505  0.36136  1.0000
  C   C24       1.0  0.86052  0.52166  0.31637  1.0000
  C   C25       1.0  0.87046  0.48614  0.31361  1.0000
  C   C26       1.0  0.84183  0.44378  0.35358  1.0000
  C   C27       1.0  0.84866  0.40669  0.33560  1.0000
  C   C28       1.0  0.83040  0.37982  0.25691  1.0000
  C   C29       1.0  0.82678  0.33690  0.25390  1.0000
  H   H17       1.0  0.81059  0.31627  0.20017  1.0000
  H   H18       1.0  0.89764  0.49051  0.27696  1.0000
  N   N9        1.0  0.81350  0.39229  0.18658  1.0000
  H   H19       1.0  0.81452  0.42106  0.18529  1.0000
  H   H20       1.0  0.80057  0.37305  0.13403  1.0000
  N   N10       1.0  0.88762  0.56246  0.26971  1.0000
  O   O9        1.0  0.88849  0.55604  0.18652  1.0000
  O   O10       1.0  0.92724  0.58218  0.29916  1.0000
  C   C30       1.0  0.49388  0.30890  0.36112  1.0000
  C   C31       1.0  0.48721  0.34166  0.31642  1.0000
  C   C32       1.0  0.52275  0.38711  0.31368  1.0000
  C   C33       1.0  0.56512  0.40081  0.35360  1.0000
  C   C34       1.0  0.60219  0.44478  0.33582  1.0000
  C   C35       1.0  0.62908  0.45348  0.25710  1.0000
  C   C36       1.0  0.67196  0.49287  0.25400  1.0000
  H   H21       1.0  0.69265  0.49729  0.20039  1.0000
  H   H22       1.0  0.51834  0.40996  0.27728  1.0000
  N   N11       1.0  0.61667  0.42411  0.18676  1.0000
  H   H23       1.0  0.58793  0.39631  0.18546  1.0000
  H   H24       1.0  0.63590  0.43049  0.13418  1.0000
  N   N12       1.0  0.44638  0.32799  0.26994  1.0000
  O   O11       1.0  0.45272  0.33535  0.18675  1.0000
  O   O12       1.0  0.42669  0.34787  0.29965  1.0000
  C   C37       1.0  0.98183  0.95736  0.34349  1.0000
  N   N13       1.0  0.95967  0.98108  0.34370  1.0000
  C   C38       1.0  0.98145  0.02695  0.34349  1.0000
  N   N14       1.0  0.02734  0.04911  0.34370  1.0000
  C   C39       1.0  0.05142  0.02733  0.34349  1.0000
  N   N15       1.0  0.02769  0.98145  0.34370  1.0000
  C   C40       1.0  0.46375  0.26143  0.35307  1.0000
  N   N16       1.0  0.41783  0.23969  0.35189  1.0000
  C   C41       1.0  0.39159  0.19383  0.34397  1.0000
  N   N17       1.0  0.41372  0.16998  0.33592  1.0000
  C   C42       1.0  0.45939  0.19042  0.33403  1.0000
  N   N18       1.0  0.48294  0.23554  0.34319  1.0000
  C   C43       1.0  0.74729  0.20503  0.35307  1.0000
  N   N19       1.0  0.76906  0.18089  0.35197  1.0000
  C   C44       1.0  0.81493  0.20056  0.34403  1.0000
  N   N20       1.0  0.83874  0.24654  0.33589  1.0000
  C   C45       1.0  0.81826  0.27172  0.33398  1.0000
  N   N21       1.0  0.77314  0.25010  0.34314  1.0000
  C   C46       1.0  0.80376  0.54509  0.35321  1.0000
  N   N22       1.0  0.82791  0.59101  0.35203  1.0000
  C   C47       1.0  0.80825  0.61721  0.34407  1.0000
  N   N23       1.0  0.76227  0.59504  0.33601  1.0000
  C   C48       1.0  0.73707  0.54937  0.33422  1.0000
  N   N24       1.0  0.75868  0.52586  0.34337  1.0000
  C   C49       1.0  0.34289  0.17089  0.34395  1.0000
  C   C50       1.0  0.31744  0.19079  0.37451  1.0000
  C   C51       1.0  0.26966  0.16557  0.37423  1.0000
  C   C52       1.0  0.24528  0.12061  0.34332  1.0000
  C   C53       1.0  0.19678  0.09710  0.34726  1.0000
  C   C54       1.0  0.17093  0.05796  0.40098  1.0000
  C   C55       1.0  0.12322  0.03553  0.39645  1.0000
  H   H25       1.0  0.10504  0.00744  0.43531  1.0000
  H   H26       1.0  0.25232  0.18047  0.39847  1.0000
  N   N25       1.0  0.19029  0.04149  0.45807  1.0000
  H   H27       1.0  0.22263  0.05667  0.46724  1.0000
  H   H28       1.0  0.17217  0.01510  0.49520  1.0000
  N   N26       1.0  0.33955  0.23561  0.40698  1.0000
  O   O13       1.0  0.33026  0.26044  0.36029  1.0000
  O   O14       1.0  0.33014  0.23784  0.48800  1.0000
  C   C56       1.0  0.83789  0.17482  0.34402  1.0000
  C   C57       1.0  0.81801  0.12947  0.37461  1.0000
  C   C58       1.0  0.84325  0.10694  0.37432  1.0000
  C   C59       1.0  0.88820  0.12754  0.34335  1.0000
  C   C60       1.0  0.91172  0.10255  0.34725  1.0000
  C   C61       1.0  0.95086  0.11585  0.40094  1.0000
  C   C62       1.0  0.97330  0.09058  0.39637  1.0000
  H   H29       1.0  0.00138  0.10049  0.43527  1.0000
  H   H30       1.0  0.82835  0.07469  0.39855  1.0000
  N   N27       1.0  0.96735  0.15169  0.45802  1.0000
  H   H31       1.0  0.95217  0.16884  0.46722  1.0000
  H   H32       1.0  0.99375  0.15997  0.49512  1.0000
  N   N28       1.0  0.77319  0.10674  0.40711  1.0000
  O   O15       1.0  0.74836  0.07260  0.36043  1.0000
  O   O16       1.0  0.77098  0.09511  0.48813  1.0000
  C   C63       1.0  0.83399  0.66591  0.34403  1.0000
  C   C64       1.0  0.87934  0.69139  0.37460  1.0000
  C   C65       1.0  0.90187  0.73916  0.37429  1.0000
  C   C66       1.0  0.88126  0.76351  0.34335  1.0000
  C   C67       1.0  0.90624  0.81201  0.34726  1.0000
  C   C68       1.0  0.89294  0.83785  0.40096  1.0000
  C   C69       1.0  0.91821  0.88556  0.39642  1.0000
  H   H33       1.0  0.90829  0.90373  0.43527  1.0000
  H   H34       1.0  0.93412  0.75652  0.39854  1.0000
  N   N29       1.0  0.85709  0.81848  0.45803  1.0000
  H   H35       1.0  0.83995  0.78615  0.46721  1.0000
  H   H36       1.0  0.84882  0.83659  0.49514  1.0000
  N   N30       1.0  0.90208  0.66932  0.40710  1.0000
  O   O17       1.0  0.93622  0.67863  0.36042  1.0000
  O   O18       1.0  0.91372  0.67875  0.48811  1.0000
  C   C70       1.0  0.64013  0.20555  0.40194  1.0000
  C   C71       1.0  0.68496  0.21436  0.40613  1.0000
  H   H37       1.0  0.70808  0.24274  0.43953  1.0000
  C   C72       1.0  0.48564  0.16917  0.32742  1.0000
  C   C73       1.0  0.49368  0.14979  0.40441  1.0000
  C   C74       1.0  0.53210  0.14452  0.40677  1.0000
  H   H38       1.0  0.53924  0.13352  0.46531  1.0000
  N   N31       1.0  0.63045  0.23566  0.44118  1.0000
  H   H39       1.0  0.65343  0.26218  0.47251  1.0000
  H   H40       1.0  0.60067  0.23227  0.43854  1.0000
  N   N32       1.0  0.46552  0.14002  0.48077  1.0000
  O   O19       1.0  0.48689  0.16375  0.54738  1.0000
  O   O20       1.0  0.44777  0.09928  0.50246  1.0000
  C   C75       1.0  0.80324  0.43740  0.40189  1.0000
  C   C76       1.0  0.79444  0.47344  0.40617  1.0000
  H   H41       1.0  0.76609  0.46817  0.43965  1.0000
  C   C77       1.0  0.83940  0.31920  0.32718  1.0000
  C   C78       1.0  0.85884  0.34664  0.40417  1.0000
  C   C79       1.0  0.86412  0.39034  0.40659  1.0000
  H   H42       1.0  0.87522  0.40849  0.46510  1.0000
  N   N33       1.0  0.77310  0.39761  0.44107  1.0000
  H   H43       1.0  0.74659  0.39406  0.47243  1.0000
  H   H44       1.0  0.77646  0.37120  0.43835  1.0000
  N   N34       1.0  0.86869  0.32830  0.48051  1.0000
  O   O21       1.0  0.84501  0.32595  0.54720  1.0000
  O   O22       1.0  0.90945  0.35131  0.50205  1.0000
  C   C80       1.0  0.57151  0.36858  0.40177  1.0000
  C   C81       1.0  0.53548  0.32374  0.40595  1.0000
  H   H45       1.0  0.54075  0.30062  0.43930  1.0000
  C   C82       1.0  0.68956  0.52308  0.32747  1.0000
  C   C83       1.0  0.66216  0.51503  0.40451  1.0000
  C   C84       1.0  0.61848  0.47659  0.40682  1.0000
  H   H46       1.0  0.60032  0.46942  0.46536  1.0000
  N   N35       1.0  0.61131  0.37825  0.44093  1.0000
  H   H47       1.0  0.61486  0.35527  0.47220  1.0000
  H   H48       1.0  0.63771  0.40803  0.43829  1.0000
  N   N36       1.0  0.68054  0.54317  0.48091  1.0000
  O   O23       1.0  0.68290  0.52178  0.54748  1.0000
  O   O24       1.0  0.65753  0.56088  0.50262  1.0000
