data_image0
_chemical_formula_structural       C16H20C6H2NH2NO2NHC6H2NH2NO2NHC3NC3NC5NC5NC36H26C4H4C2HC4HNH2NO2NHC2HC4HNH2NO2NH
_chemical_formula_sum              "C96 H70 N16 O8"
_cell_length_a       38.3476
_cell_length_b       38.3455
_cell_length_c       14.9887
_cell_angle_alpha    90
_cell_angle_beta     90
_cell_angle_gamma    89.9311

_space_group_name_H-M_alt    "P 1"
_space_group_IT_number       1

loop_
  _space_group_symop_operation_xyz
  'x, y, z'

loop_
  _atom_site_type_symbol
  _atom_site_label
  _atom_site_symmetry_multiplicity
  _atom_site_fract_x
  _atom_site_fract_y
  _atom_site_fract_z
  _atom_site_occupancy
  C   C1        1.0  0.15300  0.00720  0.26530  1.0000
  C   C2        1.0  0.18960  0.00792  0.27237  1.0000
  C   C3        1.0  0.30055  0.03114  0.32448  1.0000
  C   C4        1.0  0.26405  0.03024  0.31439  1.0000
  C   C5        1.0  0.99911  0.14742  0.25680  1.0000
  C   C6        1.0  0.99604  0.18397  0.25695  1.0000
  C   C7        1.0  0.96537  0.25624  0.27718  1.0000
  C   C8        1.0  0.96100  0.29266  0.27691  1.0000
  C   C9        1.0  0.82002  0.99330  0.25631  1.0000
  C   C10       1.0  0.85663  0.99560  0.25611  1.0000
  C   C11       1.0  0.74719  0.96430  0.27700  1.0000
  C   C12       1.0  0.71070  0.96065  0.27691  1.0000
  C   C13       1.0  0.01073  0.85095  0.26506  1.0000
  C   C14       1.0  0.01122  0.81434  0.27217  1.0000
  C   C15       1.0  0.03226  0.70288  0.32421  1.0000
  C   C16       1.0  0.03212  0.73940  0.31433  1.0000
  H   H1        1.0  0.04980  0.68841  0.28843  1.0000
  H   H2        1.0  0.04994  0.75048  0.27220  1.0000
  H   H3        1.0  0.01208  0.79991  0.21477  1.0000
  H   H4        1.0  0.01160  0.86222  0.20320  1.0000
  H   H5        1.0  0.86953  0.99723  0.19647  1.0000
  H   H6        1.0  0.80727  0.99380  0.19637  1.0000
  H   H7        1.0  0.00117  0.13456  0.19717  1.0000
  H   H8        1.0  0.99648  0.19675  0.19703  1.0000
  H   H9        1.0  0.94393  0.30350  0.23237  1.0000
  H   H10       1.0  0.95088  0.24173  0.23352  1.0000
  H   H11       1.0  0.25260  0.04775  0.27199  1.0000
  H   H12       1.0  0.31464  0.04890  0.28851  1.0000
  H   H13       1.0  0.20401  0.00885  0.21497  1.0000
  H   H14       1.0  0.14171  0.00803  0.20345  1.0000
  H   H15       1.0  0.76142  0.94943  0.23351  1.0000
  H   H16       1.0  0.69955  0.94369  0.23266  1.0000
  H   H17       1.0  0.95526  0.36037  0.28942  1.0000
  H   H18       1.0  0.36315  0.03736  0.41103  1.0000
  H   H19       1.0  0.64294  0.95619  0.28980  1.0000
  H   H20       1.0  0.03708  0.64009  0.41032  1.0000
  C   C17       1.0  0.00672  0.40756  0.31561  1.0000
  C   C18       1.0  0.99243  0.42667  0.24343  1.0000
  C   C19       1.0  0.99234  0.46350  0.24726  1.0000
  C   C20       1.0  0.00640  0.48158  0.32108  1.0000
  C   C21       1.0  0.02826  0.53903  0.26663  1.0000
  C   C22       1.0  0.02448  0.57576  0.26772  1.0000
  H   H21       1.0  0.04092  0.59083  0.23016  1.0000
  H   H22       1.0  0.98198  0.47718  0.19483  1.0000
  N   N1        1.0  0.05395  0.52472  0.21568  1.0000
  H   H23       1.0  0.05812  0.49974  0.21421  1.0000
  H   H24       1.0  0.06959  0.53922  0.18050  1.0000
  N   N2        1.0  0.97931  0.40852  0.16849  1.0000
  O   O1        1.0  0.99597  0.41611  0.09897  1.0000
  O   O2        1.0  0.94761  0.41521  0.15576  1.0000
  N   N3        1.0  0.00865  0.37063  0.31690  1.0000
  H   H25       1.0  0.01931  0.36183  0.25817  1.0000
  C   C23       1.0  0.59648  0.00824  0.31598  1.0000
  C   C24       1.0  0.57729  0.99429  0.24357  1.0000
  C   C25       1.0  0.54046  0.99438  0.24753  1.0000
  C   C26       1.0  0.52246  0.00827  0.32173  1.0000
  C   C27       1.0  0.46474  0.02986  0.26800  1.0000
  C   C28       1.0  0.42806  0.02574  0.26907  1.0000
  H   H26       1.0  0.41280  0.04206  0.23161  1.0000
  H   H27       1.0  0.52673  0.98418  0.19502  1.0000
  N   N4        1.0  0.47875  0.05574  0.21726  1.0000
  H   H28       1.0  0.50368  0.06016  0.21587  1.0000
  H   H29       1.0  0.46408  0.07131  0.18226  1.0000
  N   N5        1.0  0.59536  0.98124  0.16836  1.0000
  O   O3        1.0  0.58780  0.99813  0.09915  1.0000
  O   O4        1.0  0.58855  0.94962  0.15510  1.0000
  N   N6        1.0  0.63342  0.00973  0.31741  1.0000
  H   H30       1.0  0.64235  0.02035  0.25879  1.0000
  C   C29       1.0  0.07194  0.91243  0.33799  1.0000
  C   C30       1.0  0.09640  0.93881  0.33796  1.0000
  C   C31       1.0  0.07879  0.97073  0.33542  1.0000
  N   N7        1.0  0.04443  0.96251  0.33280  1.0000
  C   C32       1.0  0.03882  0.92762  0.33530  1.0000
  C   C33       1.0  0.00683  0.90888  0.33608  1.0000
  C   C34       1.0  0.97318  0.92434  0.33563  1.0000
  N   N8        1.0  0.96518  0.95865  0.33566  1.0000
  C   C35       1.0  0.93036  0.96406  0.33628  1.0000
  C   C36       1.0  0.91501  0.93104  0.33624  1.0000
  C   C37       1.0  0.94140  0.90655  0.33596  1.0000
  C   C38       1.0  0.91244  0.99647  0.33691  1.0000
  C   C39       1.0  0.92873  0.02977  0.33694  1.0000
  N   N9        1.0  0.96311  0.03797  0.33737  1.0000
  C   C40       1.0  0.96871  0.07286  0.33717  1.0000
  C   C41       1.0  0.93555  0.08804  0.33662  1.0000
  C   C42       1.0  0.91108  0.06167  0.33662  1.0000
  C   C43       1.0  0.00071  0.09162  0.33749  1.0000
  C   C44       1.0  0.03437  0.07620  0.33701  1.0000
  N   N10       1.0  0.04237  0.04188  0.33555  1.0000
  C   C45       1.0  0.07719  0.03647  0.33624  1.0000
  C   C46       1.0  0.09253  0.06949  0.33823  1.0000
  C   C47       1.0  0.06612  0.09399  0.33853  1.0000
  C   C48       1.0  0.09508  0.00405  0.33646  1.0000
  C   C49       1.0  0.13211  0.00509  0.34266  1.0000
  C   C50       1.0  0.20627  0.00634  0.35665  1.0000
  C   C51       1.0  0.18497  0.00440  0.43373  1.0000
  C   C52       1.0  0.14841  0.00382  0.42699  1.0000
  C   C53       1.0  0.24341  0.00663  0.36427  1.0000
  C   C54       1.0  0.26070  0.98357  0.42338  1.0000
  C   C55       1.0  0.29713  0.98454  0.43372  1.0000
  C   C56       1.0  0.31755  0.00854  0.38495  1.0000
  C   C57       1.0  0.99890  0.12870  0.33785  1.0000
  C   C58       1.0  0.99273  0.20281  0.33785  1.0000
  C   C59       1.0  0.99294  0.18375  0.41881  1.0000
  C   C60       1.0  0.99591  0.14717  0.41895  1.0000
  C   C61       1.0  0.98857  0.23985  0.33760  1.0000
  C   C62       1.0  0.97972  0.31395  0.33711  1.0000
  C   C63       1.0  0.00282  0.29774  0.39776  1.0000
  C   C64       1.0  0.00716  0.26128  0.39804  1.0000
  C   C65       1.0  0.87533  0.99534  0.33718  1.0000
  C   C66       1.0  0.85681  0.99302  0.41833  1.0000
  C   C67       1.0  0.82018  0.99080  0.41823  1.0000
  C   C68       1.0  0.80112  0.99067  0.33727  1.0000
  C   C69       1.0  0.76401  0.98728  0.33711  1.0000
  C   C70       1.0  0.68977  0.97987  0.33700  1.0000
  C   C71       1.0  0.70640  0.00277  0.39731  1.0000
  C   C72       1.0  0.74292  0.00640  0.39737  1.0000
  C   C73       1.0  0.00845  0.87186  0.34235  1.0000
  C   C74       1.0  0.00691  0.85558  0.42668  1.0000
  C   C75       1.0  0.00923  0.79768  0.35641  1.0000
  C   C76       1.0  0.00731  0.81902  0.43346  1.0000
  C   C77       1.0  0.00884  0.76054  0.36400  1.0000
  C   C78       1.0  0.98531  0.74372  0.42268  1.0000
  C   C79       1.0  0.98552  0.70727  0.43286  1.0000
  C   C80       1.0  0.00920  0.68635  0.38431  1.0000
  H   H31       1.0  0.96820  0.69613  0.47623  1.0000
  H   H32       1.0  0.96753  0.75787  0.45854  1.0000
  H   H33       1.0  0.00645  0.80813  0.49574  1.0000
  H   H34       1.0  0.00528  0.87021  0.48366  1.0000
  H   H35       1.0  0.07784  0.88646  0.34079  1.0000
  H   H36       1.0  0.12274  0.93485  0.34062  1.0000
  H   H37       1.0  0.02609  0.97954  0.33029  1.0000
  H   H38       1.0  0.98147  0.02094  0.33850  1.0000
  H   H39       1.0  0.93761  0.88017  0.33595  1.0000
  H   H40       1.0  0.88899  0.92528  0.33658  1.0000
  H   H41       1.0  0.86987  0.99248  0.47788  1.0000
  H   H42       1.0  0.80764  0.98823  0.47812  1.0000
  H   H43       1.0  0.88472  0.06563  0.33629  1.0000
  H   H44       1.0  0.92960  0.11403  0.33630  1.0000
  H   H45       1.0  0.11854  0.07523  0.33969  1.0000
  H   H46       1.0  0.06988  0.12036  0.34038  1.0000
  H   H47       1.0  0.99541  0.13409  0.47846  1.0000
  H   H48       1.0  0.98994  0.19625  0.47864  1.0000
  H   H49       1.0  0.02455  0.25059  0.44204  1.0000
  H   H50       1.0  0.01678  0.31247  0.44208  1.0000
  H   H51       1.0  0.13379  0.00242  0.48404  1.0000
  H   H52       1.0  0.19587  0.00390  0.49602  1.0000
  H   H53       1.0  0.30862  0.96754  0.47739  1.0000
  H   H54       1.0  0.24691  0.96561  0.45946  1.0000
  H   H55       1.0  0.75394  0.02365  0.44116  1.0000
  H   H56       1.0  0.69194  0.01706  0.44157  1.0000
  C   C81       1.0  0.97533  0.35252  0.33722  1.0000
  C   C82       1.0  0.35600  0.01028  0.39726  1.0000
  C   C83       1.0  0.01015  0.64786  0.39655  1.0000
  C   C84       1.0  0.65114  0.97614  0.33750  1.0000
  H   H57       1.0  0.96632  0.36040  0.40345  1.0000
  H   H58       1.0  0.36385  0.99492  0.45533  1.0000
  H   H59       1.0  0.64325  0.96725  0.40381  1.0000
  H   H60       1.0  0.99464  0.64034  0.45461  1.0000
  C   C85       1.0  0.02089  0.46247  0.39361  1.0000
  C   C86       1.0  0.02087  0.42559  0.38906  1.0000
  H   H61       1.0  0.03137  0.41142  0.44040  1.0000
  C   C87       1.0  0.00518  0.51864  0.31962  1.0000
  C   C88       1.0  0.99892  0.59246  0.32008  1.0000
  C   C89       1.0  0.97573  0.57205  0.37189  1.0000
  C   C90       1.0  0.97919  0.53534  0.37103  1.0000
  H   H62       1.0  0.96220  0.52071  0.40819  1.0000
  N   N11       1.0  0.03514  0.47816  0.46645  1.0000
  H   H63       1.0  0.04507  0.46454  0.51504  1.0000
  H   H64       1.0  0.03638  0.50336  0.47201  1.0000
  N   N12       1.0  0.94924  0.58874  0.42182  1.0000
  O   O5        1.0  0.91944  0.57956  0.39614  1.0000
  O   O6        1.0  0.95200  0.58208  0.50363  1.0000
  N   N13       1.0  0.99739  0.62938  0.31578  1.0000
  H   H65       1.0  0.97245  0.63702  0.30002  1.0000
  C   C91       1.0  0.54165  0.02247  0.39444  1.0000
  C   C92       1.0  0.57852  0.02230  0.38973  1.0000
  H   H66       1.0  0.59275  0.03252  0.44128  1.0000
  C   C93       1.0  0.48541  0.00690  0.32075  1.0000
  C   C94       1.0  0.41167  0.99991  0.32113  1.0000
  C   C95       1.0  0.43236  0.97686  0.37276  1.0000
  C   C96       1.0  0.46902  0.98069  0.37196  1.0000
  H   H67       1.0  0.48385  0.96375  0.40885  1.0000
  N   N14       1.0  0.52603  0.03655  0.46764  1.0000
  H   H68       1.0  0.53970  0.04627  0.51639  1.0000
  H   H69       1.0  0.50084  0.03788  0.47333  1.0000
  N   N15       1.0  0.41600  0.95011  0.42234  1.0000
  O   O7        1.0  0.42555  0.92045  0.39632  1.0000
  O   O8        1.0  0.42260  0.95279  0.50420  1.0000
  N   N16       1.0  0.37479  0.99791  0.31652  1.0000
  H   H70       1.0  0.36757  0.97290  0.30039  1.0000
