data_image0
_chemical_formula_structural       C4HOCHCHC2HC2HC2HC4HOCHCHC2HC2HC2HC3HOCOCHCH3C2H2C2HC2HC3HOCOCHCH3C2H2C2HC2HC8HC2H2C2H2C4HC4H2C4H2C8HC2H2C2H2C4HC4H2C4H2C4OHC3OH2COC2H2C2H2C2H4C2H2C4H2C4H2C4OHC3OH2COC2H2C2H2C2H4C2H2C4H2C4H2C4HOC4OHC4HOC4OHC4HOC4OHC2H2C2H2C2H2C2H2C2H2C2H2C4H4C4H4C4H4C4H2C4H2C4H2C4H2C4H2C4H2C4HOC4OHC4HOC4OHC4HOC4OHC2H2C2H2C2H2C2H2C2H2C2H2C4H4C4H4C4H4C4H2C4H2C4H2C4H2C4H2C4H2
_chemical_formula_sum              "C288 H168 O24"
_cell_length_a       46.6669
_cell_length_b       46.6669
_cell_length_c       14.8221
_cell_angle_alpha    90
_cell_angle_beta     90
_cell_angle_gamma    120

_space_group_name_H-M_alt    "P 1"
_space_group_IT_number       1

loop_
  _space_group_symop_operation_xyz
  'x, y, z'

loop_
  _atom_site_type_symbol
  _atom_site_label
  _atom_site_symmetry_multiplicity
  _atom_site_fract_x
  _atom_site_fract_y
  _atom_site_fract_z
  _atom_site_occupancy
  C   C1        1.0  0.02699  0.26498  0.34615  1.0000
  C   C2        1.0  0.04623  0.30043  0.34568  1.0000
  C   C3        1.0  0.08124  0.31844  0.34382  1.0000
  C   C4        1.0  0.09848  0.30073  0.34379  1.0000
  H   H1        1.0  0.03516  0.31445  0.34561  1.0000
  O   O1        1.0  0.13230  0.31763  0.34368  1.0000
  C   C5        1.0  0.11638  0.25085  0.25923  1.0000
  H   H2        1.0  0.10884  0.25635  0.20005  1.0000
  C   C6        1.0  0.11640  0.36835  0.25940  1.0000
  H   H3        1.0  0.10893  0.35518  0.20041  1.0000
  C   C7        1.0  0.08123  0.26578  0.34379  1.0000
  C   C8        1.0  0.04623  0.24878  0.34548  1.0000
  H   H4        1.0  0.03515  0.22368  0.34518  1.0000
  C   C9        1.0  0.11412  0.24652  0.42199  1.0000
  C   C10       1.0  0.09977  0.24927  0.34058  1.0000
  H   H5        1.0  0.10507  0.24907  0.48258  1.0000
  C   C11       1.0  0.11409  0.37080  0.42209  1.0000
  C   C12       1.0  0.09978  0.35349  0.34097  1.0000
  H   H6        1.0  0.10504  0.35930  0.48277  1.0000
  C   C13       1.0  0.02699  0.76498  0.34615  1.0000
  C   C14       1.0  0.04623  0.80043  0.34568  1.0000
  C   C15       1.0  0.08124  0.81844  0.34382  1.0000
  C   C16       1.0  0.09848  0.80073  0.34379  1.0000
  H   H7        1.0  0.03516  0.81445  0.34561  1.0000
  O   O2        1.0  0.13230  0.81763  0.34368  1.0000
  C   C17       1.0  0.11638  0.75085  0.25923  1.0000
  H   H8        1.0  0.10883  0.75635  0.20005  1.0000
  C   C18       1.0  0.11640  0.86835  0.25940  1.0000
  H   H9        1.0  0.10893  0.85517  0.20041  1.0000
  C   C19       1.0  0.08123  0.76578  0.34379  1.0000
  C   C20       1.0  0.04623  0.74878  0.34548  1.0000
  H   H10       1.0  0.03515  0.72368  0.34518  1.0000
  C   C21       1.0  0.11412  0.74652  0.42199  1.0000
  C   C22       1.0  0.09977  0.74928  0.34058  1.0000
  H   H11       1.0  0.10507  0.74907  0.48258  1.0000
  C   C23       1.0  0.11409  0.87080  0.42209  1.0000
  C   C24       1.0  0.09977  0.85349  0.34097  1.0000
  H   H12       1.0  0.10504  0.85930  0.48277  1.0000
  C   C25       1.0  0.21455  0.24876  0.34543  1.0000
  C   C26       1.0  0.19655  0.26576  0.34401  1.0000
  C   C27       1.0  0.21425  0.30071  0.34421  1.0000
  H   H13       1.0  0.20052  0.22366  0.34503  1.0000
  O   O3        1.0  0.19734  0.31762  0.34422  1.0000
  C   C28       1.0  0.21428  0.41656  0.34326  1.0000
  O   O4        1.0  0.19738  0.38274  0.34309  1.0000
  C   C29       1.0  0.14658  0.25088  0.25934  1.0000
  H   H14       1.0  0.15963  0.25630  0.20018  1.0000
  C   C30       1.0  0.14663  0.39849  0.25928  1.0000
  H   H15       1.0  0.15969  0.40595  0.20010  1.0000
  H   H16       1.0  0.13894  0.32101  0.40749  1.0000
  H   H17       1.0  0.19407  0.32097  0.40805  1.0000
  C   C31       1.0  0.19657  0.43379  0.34347  1.0000
  C   C32       1.0  0.21457  0.46880  0.34563  1.0000
  H   H18       1.0  0.19400  0.37608  0.40689  1.0000
  H   H19       1.0  0.20055  0.47987  0.34575  1.0000
  C   C33       1.0  0.14438  0.24654  0.42211  1.0000
  C   C34       1.0  0.16150  0.24924  0.34083  1.0000
  H   H20       1.0  0.15589  0.24905  0.48283  1.0000
  C   C35       1.0  0.14432  0.40107  0.42196  1.0000
  C   C36       1.0  0.16151  0.41525  0.34062  1.0000
  H   H21       1.0  0.15588  0.41021  0.48254  1.0000
  C   C37       1.0  0.21455  0.74876  0.34543  1.0000
  C   C38       1.0  0.19655  0.76577  0.34401  1.0000
  C   C39       1.0  0.21425  0.80071  0.34421  1.0000
  H   H22       1.0  0.20052  0.72366  0.34503  1.0000
  O   O5        1.0  0.19734  0.81762  0.34422  1.0000
  C   C40       1.0  0.21428  0.91656  0.34326  1.0000
  O   O6        1.0  0.19738  0.88274  0.34309  1.0000
  C   C41       1.0  0.14658  0.75087  0.25934  1.0000
  H   H23       1.0  0.15963  0.75630  0.20018  1.0000
  C   C42       1.0  0.14663  0.89849  0.25928  1.0000
  H   H24       1.0  0.15969  0.90595  0.20010  1.0000
  H   H25       1.0  0.13894  0.82101  0.40749  1.0000
  H   H26       1.0  0.19407  0.82097  0.40805  1.0000
  C   C43       1.0  0.19656  0.93379  0.34347  1.0000
  C   C44       1.0  0.21457  0.96880  0.34563  1.0000
  H   H27       1.0  0.19400  0.87608  0.40689  1.0000
  H   H28       1.0  0.20055  0.97987  0.34575  1.0000
  C   C45       1.0  0.14438  0.74654  0.42211  1.0000
  C   C46       1.0  0.16150  0.74924  0.34083  1.0000
  H   H29       1.0  0.15589  0.74905  0.48283  1.0000
  C   C47       1.0  0.14432  0.90107  0.42196  1.0000
  C   C48       1.0  0.16151  0.91525  0.34062  1.0000
  H   H30       1.0  0.15588  0.91021  0.48254  1.0000
  C   C49       1.0  0.24999  0.26496  0.34602  1.0000
  C   C50       1.0  0.26794  0.24699  0.34598  1.0000
  C   C51       1.0  0.25002  0.48805  0.34610  1.0000
  C   C52       1.0  0.26622  0.46881  0.34537  1.0000
  C   C53       1.0  0.24923  0.43380  0.34347  1.0000
  C   C54       1.0  0.26798  0.02397  0.34617  1.0000
  C   C55       1.0  0.26878  0.07822  0.34392  1.0000
  C   C56       1.0  0.25178  0.04322  0.34549  1.0000
  H   H31       1.0  0.22668  0.03214  0.34503  1.0000
  C   C57       1.0  0.26399  0.36831  0.25956  1.0000
  C   C58       1.0  0.26409  0.39855  0.25913  1.0000
  H   H32       1.0  0.25848  0.35521  0.20047  1.0000
  H   H33       1.0  0.25847  0.40597  0.19993  1.0000
  C   C59       1.0  0.25382  0.14353  0.25917  1.0000
  C   C60       1.0  0.25389  0.11338  0.25924  1.0000
  H   H34       1.0  0.25930  0.15659  0.20003  1.0000
  H   H35       1.0  0.25933  0.10579  0.20005  1.0000
  C   C61       1.0  0.24920  0.31841  0.34403  1.0000
  C   C62       1.0  0.26620  0.30040  0.34555  1.0000
  C   C63       1.0  0.25174  0.21155  0.34538  1.0000
  C   C64       1.0  0.26874  0.19354  0.34373  1.0000
  H   H36       1.0  0.22664  0.19753  0.34515  1.0000
  C   C65       1.0  0.26850  0.40097  0.42180  1.0000
  C   C66       1.0  0.26856  0.37076  0.42218  1.0000
  C   C67       1.0  0.26572  0.35346  0.34117  1.0000
  C   C68       1.0  0.26573  0.41527  0.34033  1.0000
  H   H37       1.0  0.26613  0.35933  0.48299  1.0000
  H   H38       1.0  0.26618  0.41019  0.48237  1.0000
  C   C69       1.0  0.24955  0.11117  0.42194  1.0000
  C   C70       1.0  0.24949  0.14139  0.42201  1.0000
  C   C71       1.0  0.25222  0.15848  0.34065  1.0000
  C   C72       1.0  0.25228  0.09676  0.34061  1.0000
  H   H39       1.0  0.25205  0.15298  0.48262  1.0000
  H   H40       1.0  0.25206  0.10215  0.48262  1.0000
  C   C73       1.0  0.24999  0.76496  0.34602  1.0000
  C   C74       1.0  0.26794  0.74699  0.34598  1.0000
  C   C75       1.0  0.25001  0.98804  0.34610  1.0000
  C   C76       1.0  0.26622  0.96881  0.34537  1.0000
  C   C77       1.0  0.24922  0.93380  0.34347  1.0000
  C   C78       1.0  0.26798  0.52397  0.34617  1.0000
  C   C79       1.0  0.26878  0.57822  0.34392  1.0000
  C   C80       1.0  0.25178  0.54322  0.34549  1.0000
  H   H41       1.0  0.22668  0.53214  0.34503  1.0000
  C   C81       1.0  0.26399  0.86831  0.25957  1.0000
  C   C82       1.0  0.26409  0.89855  0.25913  1.0000
  H   H42       1.0  0.25848  0.85521  0.20047  1.0000
  H   H43       1.0  0.25847  0.90597  0.19993  1.0000
  C   C83       1.0  0.25382  0.64353  0.25917  1.0000
  C   C84       1.0  0.25389  0.61338  0.25924  1.0000
  H   H44       1.0  0.25930  0.65659  0.20003  1.0000
  H   H45       1.0  0.25933  0.60579  0.20005  1.0000
  C   C85       1.0  0.24920  0.81841  0.34403  1.0000
  C   C86       1.0  0.26620  0.80041  0.34555  1.0000
  C   C87       1.0  0.25174  0.71154  0.34538  1.0000
  C   C88       1.0  0.26874  0.69354  0.34373  1.0000
  H   H46       1.0  0.22664  0.69752  0.34515  1.0000
  C   C89       1.0  0.26850  0.90096  0.42180  1.0000
  C   C90       1.0  0.26856  0.87076  0.42218  1.0000
  C   C91       1.0  0.26572  0.85346  0.34117  1.0000
  C   C92       1.0  0.26573  0.91527  0.34033  1.0000
  H   H47       1.0  0.26613  0.85933  0.48299  1.0000
  H   H48       1.0  0.26618  0.91019  0.48237  1.0000
  C   C93       1.0  0.24955  0.61117  0.42194  1.0000
  C   C94       1.0  0.24949  0.64139  0.42201  1.0000
  C   C95       1.0  0.25222  0.65848  0.34065  1.0000
  C   C96       1.0  0.25228  0.59676  0.34061  1.0000
  H   H49       1.0  0.25205  0.65298  0.48262  1.0000
  H   H50       1.0  0.25206  0.60215  0.48262  1.0000
  C   C97       1.0  0.49106  0.24701  0.34615  1.0000
  C   C98       1.0  0.41957  0.21127  0.34364  1.0000
  C   C99       1.0  0.43681  0.19356  0.34376  1.0000
  C   C100      1.0  0.47182  0.21156  0.34552  1.0000
  O   O7        1.0  0.38575  0.19437  0.34346  1.0000
  H   H51       1.0  0.48289  0.19754  0.34532  1.0000
  C   C101      1.0  0.30369  0.21124  0.34374  1.0000
  C   C102      1.0  0.32139  0.24619  0.34371  1.0000
  C   C103      1.0  0.30339  0.26319  0.34548  1.0000
  O   O8        1.0  0.32060  0.19433  0.34366  1.0000
  H   H52       1.0  0.31741  0.28829  0.34536  1.0000
  H   H53       1.0  0.29132  0.47988  0.34516  1.0000
  C   C104      1.0  0.30373  0.09547  0.34399  1.0000
  O   O9        1.0  0.32064  0.12929  0.34382  1.0000
  C   C105      1.0  0.40161  0.26101  0.25942  1.0000
  C   C106      1.0  0.37139  0.26095  0.25947  1.0000
  H   H54       1.0  0.40900  0.25529  0.20032  1.0000
  H   H55       1.0  0.35831  0.25528  0.20032  1.0000
  C   C107      1.0  0.37136  0.11332  0.25954  1.0000
  C   C108      1.0  0.40160  0.14346  0.25929  1.0000
  H   H56       1.0  0.35829  0.10574  0.20040  1.0000
  H   H57       1.0  0.40907  0.15652  0.20012  1.0000
  C   C109      1.0  0.47182  0.26322  0.34561  1.0000
  C   C110      1.0  0.43682  0.24622  0.34370  1.0000
  H   H58       1.0  0.37909  0.19110  0.40726  1.0000
  H   H59       1.0  0.48290  0.28831  0.34551  1.0000
  H   H60       1.0  0.32397  0.19107  0.40749  1.0000
  H   H61       1.0  0.29129  0.31443  0.34534  1.0000
  C   C111      1.0  0.30343  0.04322  0.34573  1.0000
  C   C112      1.0  0.32144  0.07823  0.34402  1.0000
  H   H62       1.0  0.32398  0.13594  0.40762  1.0000
  H   H63       1.0  0.31745  0.03214  0.34567  1.0000
  C   C113      1.0  0.37372  0.26566  0.42194  1.0000
  C   C114      1.0  0.40399  0.26571  0.42196  1.0000
  C   C115      1.0  0.41830  0.26273  0.34081  1.0000
  C   C116      1.0  0.35642  0.26270  0.34081  1.0000
  H   H64       1.0  0.41306  0.26327  0.48262  1.0000
  H   H65       1.0  0.36225  0.26326  0.48266  1.0000
  C   C117      1.0  0.40388  0.14144  0.42201  1.0000
  C   C118      1.0  0.37368  0.11115  0.42229  1.0000
  C   C119      1.0  0.35649  0.09676  0.34111  1.0000
  C   C120      1.0  0.41826  0.15852  0.34059  1.0000
  H   H66       1.0  0.36220  0.10214  0.48304  1.0000
  H   H67       1.0  0.41307  0.15298  0.48261  1.0000
  C   C121      1.0  0.49106  0.74701  0.34615  1.0000
  C   C122      1.0  0.41957  0.71127  0.34364  1.0000
  C   C123      1.0  0.43681  0.69356  0.34376  1.0000
  C   C124      1.0  0.47182  0.71156  0.34552  1.0000
  O   O10       1.0  0.38575  0.69437  0.34346  1.0000
  H   H68       1.0  0.48289  0.69754  0.34532  1.0000
  C   C125      1.0  0.30369  0.71124  0.34374  1.0000
  C   C126      1.0  0.32139  0.74619  0.34371  1.0000
  C   C127      1.0  0.30339  0.76319  0.34548  1.0000
  O   O11       1.0  0.32059  0.69433  0.34366  1.0000
  H   H69       1.0  0.31741  0.78829  0.34536  1.0000
  H   H70       1.0  0.29132  0.97988  0.34516  1.0000
  C   C128      1.0  0.30373  0.59547  0.34399  1.0000
  O   O12       1.0  0.32064  0.62928  0.34382  1.0000
  C   C129      1.0  0.40161  0.76101  0.25942  1.0000
  C   C130      1.0  0.37139  0.76095  0.25947  1.0000
  H   H71       1.0  0.40900  0.75529  0.20032  1.0000
  H   H72       1.0  0.35831  0.75528  0.20032  1.0000
  C   C131      1.0  0.37136  0.61332  0.25954  1.0000
  C   C132      1.0  0.40160  0.64346  0.25929  1.0000
  H   H73       1.0  0.35829  0.60574  0.20040  1.0000
  H   H74       1.0  0.40907  0.65652  0.20012  1.0000
  C   C133      1.0  0.47183  0.76322  0.34561  1.0000
  C   C134      1.0  0.43682  0.74622  0.34370  1.0000
  H   H75       1.0  0.37909  0.69110  0.40726  1.0000
  H   H76       1.0  0.48290  0.78831  0.34551  1.0000
  H   H77       1.0  0.32397  0.69107  0.40749  1.0000
  H   H78       1.0  0.29129  0.81442  0.34534  1.0000
  C   C135      1.0  0.30343  0.54322  0.34573  1.0000
  C   C136      1.0  0.32144  0.57822  0.34402  1.0000
  H   H79       1.0  0.32398  0.63594  0.40762  1.0000
  H   H80       1.0  0.31745  0.53214  0.34567  1.0000
  C   C137      1.0  0.37372  0.76566  0.42194  1.0000
  C   C138      1.0  0.40399  0.76571  0.42196  1.0000
  C   C139      1.0  0.41830  0.76273  0.34081  1.0000
  C   C140      1.0  0.35642  0.76270  0.34081  1.0000
  H   H81       1.0  0.41306  0.76327  0.48262  1.0000
  H   H82       1.0  0.36225  0.76326  0.48266  1.0000
  C   C141      1.0  0.40388  0.64144  0.42201  1.0000
  C   C142      1.0  0.37368  0.61115  0.42229  1.0000
  C   C143      1.0  0.35649  0.59676  0.34111  1.0000
  C   C144      1.0  0.41826  0.65852  0.34059  1.0000
  H   H83       1.0  0.36220  0.60214  0.48304  1.0000
  H   H84       1.0  0.41307  0.65298  0.48261  1.0000
  C   C145      1.0  0.52699  0.26498  0.34615  1.0000
  C   C146      1.0  0.54623  0.30043  0.34568  1.0000
  C   C147      1.0  0.58124  0.31844  0.34382  1.0000
  C   C148      1.0  0.59848  0.30073  0.34379  1.0000
  H   H85       1.0  0.53516  0.31445  0.34561  1.0000
  O   O13       1.0  0.63230  0.31763  0.34368  1.0000
  C   C149      1.0  0.99106  0.24701  0.34615  1.0000
  C   C150      1.0  0.91957  0.21127  0.34364  1.0000
  C   C151      1.0  0.93681  0.19356  0.34376  1.0000
  C   C152      1.0  0.97182  0.21156  0.34552  1.0000
  O   O14       1.0  0.88575  0.19437  0.34346  1.0000
  H   H86       1.0  0.98289  0.19754  0.34532  1.0000
  C   C153      1.0  0.74999  0.26496  0.34602  1.0000
  C   C154      1.0  0.71455  0.24876  0.34543  1.0000
  C   C155      1.0  0.69655  0.26576  0.34401  1.0000
  C   C156      1.0  0.71425  0.30071  0.34421  1.0000
  H   H87       1.0  0.70052  0.22366  0.34503  1.0000
  O   O15       1.0  0.69734  0.31762  0.34422  1.0000
  C   C157      1.0  0.76795  0.24699  0.34598  1.0000
  C   C158      1.0  0.80369  0.21124  0.34374  1.0000
  C   C159      1.0  0.82139  0.24619  0.34371  1.0000
  C   C160      1.0  0.80339  0.26319  0.34548  1.0000
  O   O16       1.0  0.82059  0.19433  0.34366  1.0000
  H   H88       1.0  0.81741  0.28829  0.34536  1.0000
  C   C161      1.0  0.75002  0.48805  0.34610  1.0000
  C   C162      1.0  0.76622  0.46881  0.34537  1.0000
  C   C163      1.0  0.74923  0.43380  0.34347  1.0000
  C   C164      1.0  0.71428  0.41656  0.34326  1.0000
  H   H89       1.0  0.79132  0.47988  0.34516  1.0000
  O   O17       1.0  0.69738  0.38274  0.34309  1.0000
  C   C165      1.0  0.76798  0.02397  0.34617  1.0000
  C   C166      1.0  0.80373  0.09547  0.34399  1.0000
  C   C167      1.0  0.76878  0.07822  0.34392  1.0000
  C   C168      1.0  0.75178  0.04322  0.34549  1.0000
  O   O18       1.0  0.82064  0.12929  0.34382  1.0000
  H   H90       1.0  0.72668  0.03214  0.34503  1.0000
  C   C169      1.0  0.61638  0.25085  0.25923  1.0000
  C   C170      1.0  0.64658  0.25088  0.25934  1.0000
  H   H91       1.0  0.60884  0.25635  0.20005  1.0000
  H   H92       1.0  0.65963  0.25630  0.20018  1.0000
  C   C171      1.0  0.76399  0.36831  0.25956  1.0000
  C   C172      1.0  0.76409  0.39855  0.25913  1.0000
  H   H93       1.0  0.75848  0.35521  0.20047  1.0000
  H   H94       1.0  0.75847  0.40597  0.19993  1.0000
  C   C173      1.0  0.64663  0.39849  0.25928  1.0000
  C   C174      1.0  0.61640  0.36835  0.25940  1.0000
  H   H95       1.0  0.65969  0.40595  0.20010  1.0000
  H   H96       1.0  0.60893  0.35518  0.20041  1.0000
  C   C175      1.0  0.90161  0.26101  0.25942  1.0000
  C   C176      1.0  0.87139  0.26095  0.25947  1.0000
  H   H97       1.0  0.90900  0.25529  0.20032  1.0000
  H   H98       1.0  0.85831  0.25528  0.20032  1.0000
  C   C177      1.0  0.75382  0.14353  0.25917  1.0000
  C   C178      1.0  0.75389  0.11338  0.25924  1.0000
  H   H99       1.0  0.75930  0.15659  0.20003  1.0000
  H   H100      1.0  0.75933  0.10579  0.20005  1.0000
  C   C179      1.0  0.87136  0.11332  0.25954  1.0000
  C   C180      1.0  0.90160  0.14346  0.25929  1.0000
  H   H101      1.0  0.85829  0.10574  0.20040  1.0000
  H   H102      1.0  0.90907  0.15652  0.20012  1.0000
  C   C181      1.0  0.58123  0.26578  0.34379  1.0000
  C   C182      1.0  0.54623  0.24878  0.34548  1.0000
  C   C183      1.0  0.97183  0.26322  0.34561  1.0000
  C   C184      1.0  0.93682  0.24622  0.34370  1.0000
  H   H103      1.0  0.63894  0.32101  0.40749  1.0000
  H   H104      1.0  0.87909  0.19110  0.40726  1.0000
  H   H105      1.0  0.53516  0.22368  0.34518  1.0000
  H   H106      1.0  0.98290  0.28831  0.34551  1.0000
  C   C185      1.0  0.74920  0.31841  0.34403  1.0000
  C   C186      1.0  0.76620  0.30040  0.34555  1.0000
  C   C187      1.0  0.75174  0.21155  0.34538  1.0000
  C   C188      1.0  0.76874  0.19354  0.34373  1.0000
  H   H107      1.0  0.69407  0.32097  0.40805  1.0000
  H   H108      1.0  0.82397  0.19107  0.40749  1.0000
  H   H109      1.0  0.79129  0.31443  0.34534  1.0000
  H   H110      1.0  0.72664  0.19753  0.34515  1.0000
  C   C189      1.0  0.69657  0.43379  0.34347  1.0000
  C   C190      1.0  0.71457  0.46880  0.34563  1.0000
  C   C191      1.0  0.80343  0.04322  0.34573  1.0000
  C   C192      1.0  0.82144  0.07823  0.34402  1.0000
  H   H111      1.0  0.69400  0.37608  0.40689  1.0000
  H   H112      1.0  0.82398  0.13594  0.40762  1.0000
  H   H113      1.0  0.70055  0.47987  0.34575  1.0000
  H   H114      1.0  0.81745  0.03214  0.34567  1.0000
  C   C193      1.0  0.64438  0.24654  0.42211  1.0000
  C   C194      1.0  0.61412  0.24652  0.42199  1.0000
  C   C195      1.0  0.59977  0.24927  0.34058  1.0000
  C   C196      1.0  0.66150  0.24924  0.34083  1.0000
  H   H115      1.0  0.60507  0.24907  0.48258  1.0000
  H   H116      1.0  0.65590  0.24905  0.48283  1.0000
  C   C197      1.0  0.76850  0.40097  0.42180  1.0000
  C   C198      1.0  0.76856  0.37076  0.42218  1.0000
  C   C199      1.0  0.76572  0.35346  0.34117  1.0000
  C   C200      1.0  0.76573  0.41527  0.34033  1.0000
  H   H117      1.0  0.76613  0.35933  0.48299  1.0000
  H   H118      1.0  0.76618  0.41019  0.48237  1.0000
  C   C201      1.0  0.61409  0.37080  0.42209  1.0000
  C   C202      1.0  0.64432  0.40107  0.42196  1.0000
  C   C203      1.0  0.66151  0.41525  0.34062  1.0000
  C   C204      1.0  0.59978  0.35349  0.34097  1.0000
  H   H119      1.0  0.65588  0.41021  0.48254  1.0000
  H   H120      1.0  0.60503  0.35930  0.48277  1.0000
  C   C205      1.0  0.87372  0.26566  0.42194  1.0000
  C   C206      1.0  0.90399  0.26571  0.42196  1.0000
  C   C207      1.0  0.91830  0.26273  0.34081  1.0000
  C   C208      1.0  0.85642  0.26270  0.34081  1.0000
  H   H121      1.0  0.91306  0.26327  0.48262  1.0000
  H   H122      1.0  0.86225  0.26326  0.48266  1.0000
  C   C209      1.0  0.74955  0.11117  0.42194  1.0000
  C   C210      1.0  0.74949  0.14139  0.42201  1.0000
  C   C211      1.0  0.75222  0.15848  0.34065  1.0000
  C   C212      1.0  0.75228  0.09676  0.34061  1.0000
  H   H123      1.0  0.75205  0.15298  0.48262  1.0000
  H   H124      1.0  0.75206  0.10215  0.48262  1.0000
  C   C213      1.0  0.90389  0.14144  0.42201  1.0000
  C   C214      1.0  0.87368  0.11115  0.42229  1.0000
  C   C215      1.0  0.85649  0.09676  0.34111  1.0000
  C   C216      1.0  0.91826  0.15852  0.34059  1.0000
  H   H125      1.0  0.86220  0.10214  0.48304  1.0000
  H   H126      1.0  0.91307  0.15298  0.48261  1.0000
  C   C217      1.0  0.52699  0.76498  0.34615  1.0000
  C   C218      1.0  0.54623  0.80043  0.34568  1.0000
  C   C219      1.0  0.58124  0.81844  0.34382  1.0000
  C   C220      1.0  0.59848  0.80073  0.34379  1.0000
  H   H127      1.0  0.53516  0.81445  0.34561  1.0000
  O   O19       1.0  0.63230  0.81763  0.34368  1.0000
  C   C221      1.0  0.99106  0.74701  0.34615  1.0000
  C   C222      1.0  0.91957  0.71127  0.34364  1.0000
  C   C223      1.0  0.93681  0.69356  0.34376  1.0000
  C   C224      1.0  0.97182  0.71156  0.34552  1.0000
  O   O20       1.0  0.88575  0.69437  0.34346  1.0000
  H   H128      1.0  0.98289  0.69754  0.34532  1.0000
  C   C225      1.0  0.74999  0.76496  0.34602  1.0000
  C   C226      1.0  0.71455  0.74876  0.34543  1.0000
  C   C227      1.0  0.69654  0.76577  0.34401  1.0000
  C   C228      1.0  0.71425  0.80071  0.34421  1.0000
  H   H129      1.0  0.70052  0.72366  0.34503  1.0000
  O   O21       1.0  0.69734  0.81762  0.34422  1.0000
  C   C229      1.0  0.76794  0.74699  0.34598  1.0000
  C   C230      1.0  0.80369  0.71124  0.34374  1.0000
  C   C231      1.0  0.82139  0.74619  0.34371  1.0000
  C   C232      1.0  0.80339  0.76319  0.34548  1.0000
  O   O22       1.0  0.82059  0.69433  0.34366  1.0000
  H   H130      1.0  0.81741  0.78829  0.34536  1.0000
  C   C233      1.0  0.75001  0.98804  0.34610  1.0000
  C   C234      1.0  0.76622  0.96881  0.34537  1.0000
  C   C235      1.0  0.74922  0.93380  0.34347  1.0000
  C   C236      1.0  0.71428  0.91656  0.34326  1.0000
  H   H131      1.0  0.79132  0.97988  0.34516  1.0000
  O   O23       1.0  0.69737  0.88274  0.34309  1.0000
  C   C237      1.0  0.76798  0.52397  0.34617  1.0000
  C   C238      1.0  0.80373  0.59547  0.34399  1.0000
  C   C239      1.0  0.76878  0.57822  0.34392  1.0000
  C   C240      1.0  0.75178  0.54322  0.34549  1.0000
  O   O24       1.0  0.82064  0.62928  0.34382  1.0000
  H   H132      1.0  0.72668  0.53214  0.34503  1.0000
  C   C241      1.0  0.61638  0.75085  0.25923  1.0000
  C   C242      1.0  0.64658  0.75087  0.25934  1.0000
  H   H133      1.0  0.60884  0.75635  0.20005  1.0000
  H   H134      1.0  0.65963  0.75630  0.20018  1.0000
  C   C243      1.0  0.76399  0.86831  0.25957  1.0000
  C   C244      1.0  0.76409  0.89855  0.25913  1.0000
  H   H135      1.0  0.75848  0.85521  0.20047  1.0000
  H   H136      1.0  0.75847  0.90597  0.19993  1.0000
  C   C245      1.0  0.64663  0.89849  0.25928  1.0000
  C   C246      1.0  0.61640  0.86835  0.25940  1.0000
  H   H137      1.0  0.65969  0.90595  0.20010  1.0000
  H   H138      1.0  0.60893  0.85517  0.20041  1.0000
  C   C247      1.0  0.90161  0.76101  0.25942  1.0000
  C   C248      1.0  0.87139  0.76095  0.25947  1.0000
  H   H139      1.0  0.90900  0.75529  0.20032  1.0000
  H   H140      1.0  0.85831  0.75528  0.20032  1.0000
  C   C249      1.0  0.75382  0.64353  0.25917  1.0000
  C   C250      1.0  0.75389  0.61338  0.25924  1.0000
  H   H141      1.0  0.75930  0.65659  0.20003  1.0000
  H   H142      1.0  0.75933  0.60579  0.20005  1.0000
  C   C251      1.0  0.87136  0.61332  0.25954  1.0000
  C   C252      1.0  0.90160  0.64346  0.25929  1.0000
  H   H143      1.0  0.85829  0.60574  0.20040  1.0000
  H   H144      1.0  0.90907  0.65652  0.20012  1.0000
  C   C253      1.0  0.58123  0.76578  0.34379  1.0000
  C   C254      1.0  0.54623  0.74878  0.34548  1.0000
  C   C255      1.0  0.97183  0.76322  0.34561  1.0000
  C   C256      1.0  0.93682  0.74622  0.34370  1.0000
  H   H145      1.0  0.63894  0.82101  0.40749  1.0000
  H   H146      1.0  0.87909  0.69110  0.40726  1.0000
  H   H147      1.0  0.53515  0.72368  0.34518  1.0000
  H   H148      1.0  0.98290  0.78831  0.34551  1.0000
  C   C257      1.0  0.74920  0.81841  0.34403  1.0000
  C   C258      1.0  0.76620  0.80041  0.34555  1.0000
  C   C259      1.0  0.75174  0.71154  0.34538  1.0000
  C   C260      1.0  0.76874  0.69354  0.34373  1.0000
  H   H149      1.0  0.69407  0.82097  0.40805  1.0000
  H   H150      1.0  0.82397  0.69107  0.40749  1.0000
  H   H151      1.0  0.79129  0.81442  0.34534  1.0000
  H   H152      1.0  0.72664  0.69752  0.34515  1.0000
  C   C261      1.0  0.69656  0.93379  0.34347  1.0000
  C   C262      1.0  0.71457  0.96880  0.34563  1.0000
  C   C263      1.0  0.80343  0.54322  0.34573  1.0000
  C   C264      1.0  0.82144  0.57822  0.34402  1.0000
  H   H153      1.0  0.69400  0.87608  0.40689  1.0000
  H   H154      1.0  0.82398  0.63594  0.40762  1.0000
  H   H155      1.0  0.70055  0.97987  0.34575  1.0000
  H   H156      1.0  0.81745  0.53214  0.34567  1.0000
  C   C265      1.0  0.64438  0.74654  0.42211  1.0000
  C   C266      1.0  0.61412  0.74652  0.42199  1.0000
  C   C267      1.0  0.59977  0.74928  0.34058  1.0000
  C   C268      1.0  0.66150  0.74924  0.34083  1.0000
  H   H157      1.0  0.60507  0.74907  0.48258  1.0000
  H   H158      1.0  0.65589  0.74905  0.48283  1.0000
  C   C269      1.0  0.76850  0.90096  0.42180  1.0000
  C   C270      1.0  0.76856  0.87076  0.42218  1.0000
  C   C271      1.0  0.76572  0.85346  0.34117  1.0000
  C   C272      1.0  0.76573  0.91527  0.34033  1.0000
  H   H159      1.0  0.76613  0.85933  0.48299  1.0000
  H   H160      1.0  0.76618  0.91019  0.48237  1.0000
  C   C273      1.0  0.61409  0.87080  0.42209  1.0000
  C   C274      1.0  0.64432  0.90107  0.42196  1.0000
  C   C275      1.0  0.66151  0.91525  0.34062  1.0000
  C   C276      1.0  0.59978  0.85349  0.34097  1.0000
  H   H161      1.0  0.65588  0.91021  0.48254  1.0000
  H   H162      1.0  0.60503  0.85930  0.48277  1.0000
  C   C277      1.0  0.87372  0.76566  0.42194  1.0000
  C   C278      1.0  0.90399  0.76571  0.42196  1.0000
  C   C279      1.0  0.91830  0.76273  0.34081  1.0000
  C   C280      1.0  0.85642  0.76270  0.34081  1.0000
  H   H163      1.0  0.91306  0.76327  0.48262  1.0000
  H   H164      1.0  0.86225  0.76326  0.48266  1.0000
  C   C281      1.0  0.74955  0.61117  0.42194  1.0000
  C   C282      1.0  0.74949  0.64139  0.42201  1.0000
  C   C283      1.0  0.75222  0.65848  0.34065  1.0000
  C   C284      1.0  0.75228  0.59676  0.34061  1.0000
  H   H165      1.0  0.75205  0.65298  0.48262  1.0000
  H   H166      1.0  0.75206  0.60215  0.48262  1.0000
  C   C285      1.0  0.90388  0.64144  0.42201  1.0000
  C   C286      1.0  0.87368  0.61115  0.42229  1.0000
  C   C287      1.0  0.85649  0.59676  0.34111  1.0000
  C   C288      1.0  0.91826  0.65852  0.34059  1.0000
  H   H167      1.0  0.86220  0.60214  0.48304  1.0000
  H   H168      1.0  0.91307  0.65298  0.48261  1.0000
