data_image0
_chemical_formula_structural       C2H2C4HNOC2H2C4HNO3C3H2C3H2C2H2C7HNOC2H2C7HNOC2H2C2H2C2H2C2H3C6H3C7H2N2O4C5HNO3C4HNO3C2H2C2H2C2H2C2H3C6H3C7H2N2O4C5HNO3C4HNO3C2H2C2H2C2H2C2H2C2H2C2H2C6H3C6H3C8H2N2O4C8H2N2O4C8H2N2O3C2H2C2H2C2H2C2H2C2H2C2H2C6H3C6H3C8H2N2O4C8H2N2O4C8H2N2O3
_chemical_formula_sum              "C192 H96 N24 O48"
_cell_length_a       44.5534
_cell_length_b       44.5534
_cell_length_c       14.8528
_cell_angle_alpha    90
_cell_angle_beta     90
_cell_angle_gamma    120

_space_group_name_H-M_alt    "P 1"
_space_group_IT_number       1

loop_
  _space_group_symop_operation_xyz
  'x, y, z'

loop_
  _atom_site_type_symbol
  _atom_site_label
  _atom_site_symmetry_multiplicity
  _atom_site_fract_x
  _atom_site_fract_y
  _atom_site_fract_z
  _atom_site_occupancy
  C   C1        1.0  0.08112  0.30600  0.27975  1.0000
  C   C2        1.0  0.04464  0.28747  0.28055  1.0000
  H   H1        1.0  0.09365  0.32230  0.22701  1.0000
  H   H2        1.0  0.03168  0.29127  0.22891  1.0000
  C   C3        1.0  0.02606  0.26466  0.35202  1.0000
  C   C4        1.0  0.04501  0.26037  0.42298  1.0000
  C   C5        1.0  0.08176  0.27856  0.42012  1.0000
  C   C6        1.0  0.10024  0.30162  0.34921  1.0000
  H   H3        1.0  0.09513  0.27524  0.47156  1.0000
  N   N1        1.0  0.02696  0.23739  0.49469  1.0000
  O   O1        1.0  0.03430  0.25300  0.56895  1.0000
  C   C7        1.0  0.08112  0.80600  0.27975  1.0000
  C   C8        1.0  0.04464  0.78747  0.28055  1.0000
  H   H4        1.0  0.09365  0.82230  0.22701  1.0000
  H   H5        1.0  0.03168  0.79127  0.22891  1.0000
  C   C9        1.0  0.02606  0.76466  0.35202  1.0000
  C   C10       1.0  0.04501  0.76037  0.42298  1.0000
  C   C11       1.0  0.08176  0.77856  0.42012  1.0000
  C   C12       1.0  0.10024  0.80162  0.34921  1.0000
  H   H6        1.0  0.09512  0.77524  0.47156  1.0000
  N   N2        1.0  0.02696  0.73739  0.49469  1.0000
  O   O2        1.0  0.03430  0.75300  0.56895  1.0000
  O   O3        1.0  0.03366  0.21318  0.49909  1.0000
  O   O4        1.0  0.03366  0.71318  0.49909  1.0000
  C   C13       1.0  0.13718  0.31996  0.34805  1.0000
  C   C14       1.0  0.15602  0.35662  0.34808  1.0000
  C   C15       1.0  0.15576  0.30187  0.34807  1.0000
  H   H7        1.0  0.14240  0.27531  0.34849  1.0000
  H   H8        1.0  0.14283  0.36999  0.34850  1.0000
  C   C16       1.0  0.13717  0.81996  0.34805  1.0000
  C   C17       1.0  0.15602  0.85662  0.34808  1.0000
  C   C18       1.0  0.15577  0.80187  0.34807  1.0000
  H   H9        1.0  0.14240  0.77531  0.34849  1.0000
  H   H10       1.0  0.14282  0.86999  0.34850  1.0000
  C   C19       1.0  0.20639  0.27759  0.27976  1.0000
  C   C20       1.0  0.22492  0.25964  0.28056  1.0000
  H   H11       1.0  0.19008  0.27381  0.22702  1.0000
  H   H12       1.0  0.22111  0.24288  0.22893  1.0000
  C   C21       1.0  0.19269  0.37521  0.34806  1.0000
  C   C22       1.0  0.21052  0.35637  0.34808  1.0000
  C   C23       1.0  0.19243  0.31970  0.34805  1.0000
  C   C24       1.0  0.21077  0.30110  0.34921  1.0000
  C   C25       1.0  0.22527  0.46738  0.42298  1.0000
  C   C26       1.0  0.20671  0.43063  0.42012  1.0000
  C   C27       1.0  0.21129  0.41215  0.34922  1.0000
  H   H13       1.0  0.19003  0.41726  0.47156  1.0000
  N   N3        1.0  0.22033  0.48542  0.49468  1.0000
  O   O5        1.0  0.18943  0.97873  0.49908  1.0000
  C   C28       1.0  0.20639  0.77759  0.27976  1.0000
  C   C29       1.0  0.22492  0.75964  0.28056  1.0000
  H   H14       1.0  0.19008  0.77381  0.22702  1.0000
  H   H15       1.0  0.22111  0.74288  0.22893  1.0000
  C   C30       1.0  0.19269  0.87521  0.34806  1.0000
  C   C31       1.0  0.21052  0.85637  0.34808  1.0000
  C   C32       1.0  0.19243  0.81970  0.34805  1.0000
  C   C33       1.0  0.21077  0.80110  0.34921  1.0000
  C   C34       1.0  0.22527  0.96738  0.42298  1.0000
  C   C35       1.0  0.20671  0.93063  0.42012  1.0000
  C   C36       1.0  0.21129  0.91215  0.34922  1.0000
  H   H16       1.0  0.19002  0.91726  0.47156  1.0000
  N   N4        1.0  0.22033  0.98542  0.49468  1.0000
  O   O6        1.0  0.18943  0.47873  0.49908  1.0000
  C   C37       1.0  0.28882  0.24912  0.28061  1.0000
  C   C38       1.0  0.30709  0.23091  0.28082  1.0000
  H   H17       1.0  0.29304  0.26612  0.22926  1.0000
  H   H18       1.0  0.32370  0.23483  0.22872  1.0000
  C   C39       1.0  0.26326  0.04217  0.28062  1.0000
  C   C40       1.0  0.28148  0.07866  0.28084  1.0000
  H   H19       1.0  0.24627  0.02941  0.22928  1.0000
  H   H20       1.0  0.27756  0.09134  0.22873  1.0000
  C   C41       1.0  0.23480  0.43127  0.27976  1.0000
  C   C42       1.0  0.25275  0.46775  0.28057  1.0000
  H   H21       1.0  0.23857  0.41874  0.22702  1.0000
  H   H22       1.0  0.26951  0.48071  0.22893  1.0000
  C   C43       1.0  0.47022  0.22357  0.28061  1.0000
  C   C44       1.0  0.43373  0.20530  0.28083  1.0000
  H   H23       1.0  0.48298  0.21934  0.22928  1.0000
  H   H24       1.0  0.42104  0.18868  0.22873  1.0000
  H   H25       1.0  0.23708  0.36956  0.34850  1.0000
  C   C45       1.0  0.37773  0.19081  0.34841  1.0000
  C   C46       1.0  0.35966  0.15413  0.34804  1.0000
  C   C47       1.0  0.32300  0.13466  0.34841  1.0000
  C   C48       1.0  0.30439  0.15273  0.34801  1.0000
  C   C49       1.0  0.32158  0.18939  0.34841  1.0000
  C   C50       1.0  0.35825  0.20800  0.34801  1.0000
  H   H26       1.0  0.27785  0.13895  0.34833  1.0000
  H   H27       1.0  0.37101  0.23455  0.34832  1.0000
  H   H28       1.0  0.37344  0.14138  0.34833  1.0000
  C   C51       1.0  0.30243  0.20730  0.35055  1.0000
  C   C52       1.0  0.27898  0.20248  0.42144  1.0000
  C   C53       1.0  0.26098  0.22125  0.42073  1.0000
  C   C54       1.0  0.26566  0.24478  0.35098  1.0000
  C   C55       1.0  0.24773  0.26387  0.35201  1.0000
  C   C56       1.0  0.25202  0.28712  0.42297  1.0000
  C   C57       1.0  0.23383  0.30568  0.42012  1.0000
  H   H29       1.0  0.23716  0.32237  0.47155  1.0000
  H   H30       1.0  0.24416  0.21754  0.47213  1.0000
  N   N5        1.0  0.27501  0.29206  0.49467  1.0000
  N   N6        1.0  0.27465  0.17983  0.49346  1.0000
  O   O7        1.0  0.25940  0.28379  0.56894  1.0000
  O   O8        1.0  0.24373  0.15576  0.49973  1.0000
  O   O9        1.0  0.29922  0.32297  0.49905  1.0000
  O   O10       1.0  0.28371  0.19570  0.56726  1.0000
  C   C58       1.0  0.30509  0.09761  0.35055  1.0000
  C   C59       1.0  0.30991  0.07897  0.42144  1.0000
  C   C60       1.0  0.29114  0.04221  0.42073  1.0000
  C   C61       1.0  0.26761  0.02336  0.35099  1.0000
  C   C62       1.0  0.24852  0.48633  0.35202  1.0000
  H   H31       1.0  0.29485  0.02910  0.47213  1.0000
  N   N7        1.0  0.33256  0.09730  0.49346  1.0000
  O   O11       1.0  0.22861  0.47809  0.56895  1.0000
  O   O12       1.0  0.35664  0.09045  0.49973  1.0000
  O   O13       1.0  0.31669  0.09048  0.56727  1.0000
  C   C63       1.0  0.41478  0.20996  0.35055  1.0000
  C   C64       1.0  0.43342  0.23342  0.42143  1.0000
  C   C65       1.0  0.47018  0.25141  0.42072  1.0000
  C   C66       1.0  0.48903  0.24673  0.35098  1.0000
  H   H32       1.0  0.48329  0.26824  0.47212  1.0000
  N   N8        1.0  0.41509  0.23774  0.49345  1.0000
  O   O14       1.0  0.42194  0.26867  0.49971  1.0000
  O   O15       1.0  0.53366  0.21318  0.49909  1.0000
  O   O16       1.0  0.42191  0.22869  0.56725  1.0000
  C   C67       1.0  0.28882  0.74913  0.28061  1.0000
  C   C68       1.0  0.30709  0.73091  0.28082  1.0000
  H   H33       1.0  0.29304  0.76611  0.22926  1.0000
  H   H34       1.0  0.32370  0.73483  0.22872  1.0000
  C   C69       1.0  0.26326  0.54217  0.28062  1.0000
  C   C70       1.0  0.28148  0.57866  0.28084  1.0000
  H   H35       1.0  0.24627  0.52941  0.22928  1.0000
  H   H36       1.0  0.27756  0.59135  0.22873  1.0000
  C   C71       1.0  0.23480  0.93127  0.27976  1.0000
  C   C72       1.0  0.25275  0.96775  0.28057  1.0000
  H   H37       1.0  0.23857  0.91874  0.22702  1.0000
  H   H38       1.0  0.26951  0.98071  0.22893  1.0000
  C   C73       1.0  0.47022  0.72357  0.28061  1.0000
  C   C74       1.0  0.43373  0.70530  0.28083  1.0000
  H   H39       1.0  0.48298  0.71934  0.22928  1.0000
  H   H40       1.0  0.42104  0.68869  0.22873  1.0000
  H   H41       1.0  0.23708  0.86956  0.34850  1.0000
  C   C75       1.0  0.37773  0.69081  0.34841  1.0000
  C   C76       1.0  0.35966  0.65414  0.34804  1.0000
  C   C77       1.0  0.32300  0.63466  0.34841  1.0000
  C   C78       1.0  0.30439  0.65273  0.34801  1.0000
  C   C79       1.0  0.32158  0.68939  0.34841  1.0000
  C   C80       1.0  0.35826  0.70800  0.34801  1.0000
  H   H42       1.0  0.27785  0.63894  0.34833  1.0000
  H   H43       1.0  0.37101  0.73454  0.34832  1.0000
  H   H44       1.0  0.37344  0.64138  0.34833  1.0000
  C   C81       1.0  0.30243  0.70730  0.35055  1.0000
  C   C82       1.0  0.27898  0.70248  0.42144  1.0000
  C   C83       1.0  0.26098  0.72125  0.42073  1.0000
  C   C84       1.0  0.26566  0.74478  0.35098  1.0000
  C   C85       1.0  0.24773  0.76387  0.35201  1.0000
  C   C86       1.0  0.25202  0.78712  0.42297  1.0000
  C   C87       1.0  0.23383  0.80568  0.42012  1.0000
  H   H45       1.0  0.23716  0.82237  0.47155  1.0000
  H   H46       1.0  0.24416  0.71754  0.47213  1.0000
  N   N9        1.0  0.27501  0.79206  0.49467  1.0000
  N   N10       1.0  0.27465  0.67983  0.49346  1.0000
  O   O17       1.0  0.25940  0.78379  0.56894  1.0000
  O   O18       1.0  0.24373  0.65575  0.49973  1.0000
  O   O19       1.0  0.29922  0.82297  0.49905  1.0000
  O   O20       1.0  0.28371  0.69570  0.56726  1.0000
  C   C88       1.0  0.30509  0.59761  0.35055  1.0000
  C   C89       1.0  0.30991  0.57897  0.42144  1.0000
  C   C90       1.0  0.29114  0.54221  0.42073  1.0000
  C   C91       1.0  0.26761  0.52336  0.35099  1.0000
  C   C92       1.0  0.24852  0.98633  0.35202  1.0000
  H   H47       1.0  0.29485  0.52909  0.47213  1.0000
  N   N11       1.0  0.33256  0.59730  0.49346  1.0000
  O   O21       1.0  0.22861  0.97809  0.56895  1.0000
  O   O22       1.0  0.35664  0.59045  0.49973  1.0000
  O   O23       1.0  0.31669  0.59048  0.56727  1.0000
  C   C93       1.0  0.41478  0.70996  0.35055  1.0000
  C   C94       1.0  0.43342  0.73342  0.42143  1.0000
  C   C95       1.0  0.47018  0.75141  0.42072  1.0000
  C   C96       1.0  0.48903  0.74673  0.35098  1.0000
  H   H48       1.0  0.48329  0.76824  0.47212  1.0000
  N   N12       1.0  0.41508  0.73774  0.49345  1.0000
  O   O24       1.0  0.42194  0.76867  0.49971  1.0000
  O   O25       1.0  0.53366  0.71318  0.49909  1.0000
  O   O26       1.0  0.42191  0.72869  0.56725  1.0000
  C   C97       1.0  0.78882  0.24912  0.28061  1.0000
  C   C98       1.0  0.80709  0.23091  0.28082  1.0000
  H   H49       1.0  0.79304  0.26612  0.22926  1.0000
  H   H50       1.0  0.82370  0.23483  0.22872  1.0000
  C   C99       1.0  0.70638  0.27759  0.27976  1.0000
  C   C100      1.0  0.72491  0.25964  0.28056  1.0000
  H   H51       1.0  0.69008  0.27381  0.22702  1.0000
  H   H52       1.0  0.72110  0.24288  0.22893  1.0000
  C   C101      1.0  0.76326  0.04217  0.28062  1.0000
  C   C102      1.0  0.78148  0.07866  0.28084  1.0000
  H   H53       1.0  0.74627  0.02941  0.22928  1.0000
  H   H54       1.0  0.77756  0.09134  0.22873  1.0000
  C   C103      1.0  0.73479  0.43127  0.27976  1.0000
  C   C104      1.0  0.75275  0.46775  0.28057  1.0000
  H   H55       1.0  0.73857  0.41874  0.22702  1.0000
  H   H56       1.0  0.76951  0.48071  0.22893  1.0000
  C   C105      1.0  0.97022  0.22357  0.28061  1.0000
  C   C106      1.0  0.93373  0.20530  0.28083  1.0000
  H   H57       1.0  0.98298  0.21934  0.22928  1.0000
  H   H58       1.0  0.92105  0.18868  0.22873  1.0000
  C   C107      1.0  0.58112  0.30600  0.27975  1.0000
  C   C108      1.0  0.54463  0.28747  0.28055  1.0000
  H   H59       1.0  0.59365  0.32230  0.22701  1.0000
  H   H60       1.0  0.53168  0.29127  0.22891  1.0000
  C   C109      1.0  0.63718  0.31996  0.34805  1.0000
  C   C110      1.0  0.65602  0.35662  0.34808  1.0000
  C   C111      1.0  0.69269  0.37521  0.34806  1.0000
  C   C112      1.0  0.71052  0.35637  0.34808  1.0000
  C   C113      1.0  0.69243  0.31970  0.34805  1.0000
  C   C114      1.0  0.65576  0.30187  0.34807  1.0000
  H   H61       1.0  0.73708  0.36956  0.34850  1.0000
  H   H62       1.0  0.64240  0.27531  0.34849  1.0000
  H   H63       1.0  0.64283  0.36999  0.34850  1.0000
  C   C115      1.0  0.87773  0.19081  0.34841  1.0000
  C   C116      1.0  0.85966  0.15413  0.34804  1.0000
  C   C117      1.0  0.82300  0.13466  0.34841  1.0000
  C   C118      1.0  0.80439  0.15273  0.34801  1.0000
  C   C119      1.0  0.82158  0.18939  0.34841  1.0000
  C   C120      1.0  0.85825  0.20800  0.34801  1.0000
  H   H64       1.0  0.77785  0.13895  0.34833  1.0000
  H   H65       1.0  0.87101  0.23455  0.34832  1.0000
  H   H66       1.0  0.87344  0.14138  0.34833  1.0000
  C   C121      1.0  0.80243  0.20730  0.35055  1.0000
  C   C122      1.0  0.77898  0.20248  0.42144  1.0000
  C   C123      1.0  0.76098  0.22125  0.42073  1.0000
  C   C124      1.0  0.76566  0.24478  0.35098  1.0000
  C   C125      1.0  0.74772  0.26387  0.35201  1.0000
  C   C126      1.0  0.75202  0.28712  0.42297  1.0000
  C   C127      1.0  0.73383  0.30568  0.42012  1.0000
  C   C128      1.0  0.71077  0.30110  0.34921  1.0000
  H   H67       1.0  0.73716  0.32237  0.47155  1.0000
  H   H68       1.0  0.74416  0.21754  0.47213  1.0000
  N   N13       1.0  0.77501  0.29206  0.49467  1.0000
  N   N14       1.0  0.77465  0.17983  0.49346  1.0000
  O   O27       1.0  0.75940  0.28379  0.56894  1.0000
  O   O28       1.0  0.74373  0.15576  0.49973  1.0000
  O   O29       1.0  0.79922  0.32297  0.49905  1.0000
  O   O30       1.0  0.78370  0.19570  0.56726  1.0000
  C   C129      1.0  0.80509  0.09761  0.35055  1.0000
  C   C130      1.0  0.80991  0.07897  0.42144  1.0000
  C   C131      1.0  0.79114  0.04221  0.42073  1.0000
  C   C132      1.0  0.76761  0.02336  0.35099  1.0000
  C   C133      1.0  0.74852  0.48633  0.35202  1.0000
  C   C134      1.0  0.72527  0.46738  0.42298  1.0000
  C   C135      1.0  0.70671  0.43063  0.42012  1.0000
  C   C136      1.0  0.71129  0.41215  0.34922  1.0000
  H   H69       1.0  0.69003  0.41726  0.47156  1.0000
  H   H70       1.0  0.79485  0.02910  0.47213  1.0000
  N   N15       1.0  0.72033  0.48542  0.49468  1.0000
  N   N16       1.0  0.83256  0.09730  0.49346  1.0000
  O   O31       1.0  0.72861  0.47809  0.56895  1.0000
  O   O32       1.0  0.85664  0.09045  0.49973  1.0000
  O   O33       1.0  0.68943  0.97873  0.49908  1.0000
  O   O34       1.0  0.81669  0.09048  0.56727  1.0000
  C   C137      1.0  0.91478  0.20996  0.35055  1.0000
  C   C138      1.0  0.93342  0.23342  0.42143  1.0000
  C   C139      1.0  0.97018  0.25141  0.42072  1.0000
  C   C140      1.0  0.98903  0.24673  0.35098  1.0000
  C   C141      1.0  0.52606  0.26466  0.35202  1.0000
  C   C142      1.0  0.54501  0.26037  0.42298  1.0000
  C   C143      1.0  0.58176  0.27856  0.42012  1.0000
  C   C144      1.0  0.60024  0.30162  0.34921  1.0000
  H   H71       1.0  0.59513  0.27524  0.47156  1.0000
  H   H72       1.0  0.98329  0.26824  0.47212  1.0000
  N   N17       1.0  0.52696  0.23739  0.49469  1.0000
  N   N18       1.0  0.91509  0.23774  0.49345  1.0000
  O   O35       1.0  0.53430  0.25300  0.56895  1.0000
  O   O36       1.0  0.92194  0.26867  0.49971  1.0000
  O   O37       1.0  0.92191  0.22869  0.56725  1.0000
  C   C145      1.0  0.78882  0.74913  0.28061  1.0000
  C   C146      1.0  0.80709  0.73091  0.28082  1.0000
  H   H73       1.0  0.79304  0.76611  0.22926  1.0000
  H   H74       1.0  0.82370  0.73483  0.22872  1.0000
  C   C147      1.0  0.70639  0.77759  0.27976  1.0000
  C   C148      1.0  0.72492  0.75964  0.28056  1.0000
  H   H75       1.0  0.69007  0.77381  0.22702  1.0000
  H   H76       1.0  0.72111  0.74288  0.22893  1.0000
  C   C149      1.0  0.76326  0.54217  0.28062  1.0000
  C   C150      1.0  0.78148  0.57866  0.28084  1.0000
  H   H77       1.0  0.74627  0.52941  0.22928  1.0000
  H   H78       1.0  0.77755  0.59135  0.22873  1.0000
  C   C151      1.0  0.73480  0.93127  0.27976  1.0000
  C   C152      1.0  0.75275  0.96775  0.28057  1.0000
  H   H79       1.0  0.73857  0.91874  0.22702  1.0000
  H   H80       1.0  0.76951  0.98071  0.22893  1.0000
  C   C153      1.0  0.97022  0.72357  0.28061  1.0000
  C   C154      1.0  0.93373  0.70530  0.28083  1.0000
  H   H81       1.0  0.98298  0.71934  0.22928  1.0000
  H   H82       1.0  0.92104  0.68869  0.22873  1.0000
  C   C155      1.0  0.58112  0.80600  0.27975  1.0000
  C   C156      1.0  0.54463  0.78747  0.28055  1.0000
  H   H83       1.0  0.59365  0.82230  0.22701  1.0000
  H   H84       1.0  0.53168  0.79127  0.22891  1.0000
  C   C157      1.0  0.63718  0.81996  0.34805  1.0000
  C   C158      1.0  0.65602  0.85662  0.34808  1.0000
  C   C159      1.0  0.69269  0.87521  0.34806  1.0000
  C   C160      1.0  0.71052  0.85637  0.34808  1.0000
  C   C161      1.0  0.69243  0.81970  0.34805  1.0000
  C   C162      1.0  0.65577  0.80187  0.34807  1.0000
  H   H85       1.0  0.73708  0.86956  0.34850  1.0000
  H   H86       1.0  0.64240  0.77531  0.34849  1.0000
  H   H87       1.0  0.64283  0.86999  0.34850  1.0000
  C   C163      1.0  0.87773  0.69081  0.34841  1.0000
  C   C164      1.0  0.85966  0.65414  0.34804  1.0000
  C   C165      1.0  0.82300  0.63466  0.34841  1.0000
  C   C166      1.0  0.80439  0.65273  0.34801  1.0000
  C   C167      1.0  0.82158  0.68939  0.34841  1.0000
  C   C168      1.0  0.85826  0.70800  0.34801  1.0000
  H   H88       1.0  0.77784  0.63894  0.34833  1.0000
  H   H89       1.0  0.87101  0.73454  0.34832  1.0000
  H   H90       1.0  0.87344  0.64138  0.34833  1.0000
  C   C169      1.0  0.80243  0.70730  0.35055  1.0000
  C   C170      1.0  0.77898  0.70248  0.42144  1.0000
  C   C171      1.0  0.76098  0.72125  0.42073  1.0000
  C   C172      1.0  0.76566  0.74478  0.35098  1.0000
  C   C173      1.0  0.74772  0.76387  0.35201  1.0000
  C   C174      1.0  0.75202  0.78712  0.42297  1.0000
  C   C175      1.0  0.73383  0.80568  0.42012  1.0000
  C   C176      1.0  0.71077  0.80110  0.34921  1.0000
  H   H91       1.0  0.73716  0.82237  0.47155  1.0000
  H   H92       1.0  0.74416  0.71754  0.47213  1.0000
  N   N19       1.0  0.77501  0.79206  0.49467  1.0000
  N   N20       1.0  0.77465  0.67983  0.49346  1.0000
  O   O38       1.0  0.75940  0.78379  0.56894  1.0000
  O   O39       1.0  0.74373  0.65575  0.49973  1.0000
  O   O40       1.0  0.79922  0.82297  0.49905  1.0000
  O   O41       1.0  0.78371  0.69570  0.56726  1.0000
  C   C177      1.0  0.80509  0.59761  0.35055  1.0000
  C   C178      1.0  0.80991  0.57897  0.42144  1.0000
  C   C179      1.0  0.79114  0.54221  0.42073  1.0000
  C   C180      1.0  0.76761  0.52336  0.35099  1.0000
  C   C181      1.0  0.74852  0.98633  0.35202  1.0000
  C   C182      1.0  0.72527  0.96738  0.42298  1.0000
  C   C183      1.0  0.70671  0.93063  0.42012  1.0000
  C   C184      1.0  0.71129  0.91215  0.34922  1.0000
  H   H93       1.0  0.69002  0.91726  0.47156  1.0000
  H   H94       1.0  0.79485  0.52909  0.47213  1.0000
  N   N21       1.0  0.72033  0.98542  0.49468  1.0000
  N   N22       1.0  0.83256  0.59730  0.49346  1.0000
  O   O42       1.0  0.72861  0.97809  0.56895  1.0000
  O   O43       1.0  0.85664  0.59045  0.49973  1.0000
  O   O44       1.0  0.68943  0.47873  0.49908  1.0000
  O   O45       1.0  0.81669  0.59048  0.56727  1.0000
  C   C185      1.0  0.91478  0.70996  0.35055  1.0000
  C   C186      1.0  0.93342  0.73342  0.42143  1.0000
  C   C187      1.0  0.97018  0.75141  0.42072  1.0000
  C   C188      1.0  0.98903  0.74673  0.35098  1.0000
  C   C189      1.0  0.52606  0.76466  0.35202  1.0000
  C   C190      1.0  0.54501  0.76037  0.42298  1.0000
  C   C191      1.0  0.58176  0.77856  0.42012  1.0000
  C   C192      1.0  0.60024  0.80162  0.34921  1.0000
  H   H95       1.0  0.59513  0.77524  0.47156  1.0000
  H   H96       1.0  0.98329  0.76824  0.47212  1.0000
  N   N23       1.0  0.52696  0.73739  0.49469  1.0000
  N   N24       1.0  0.91509  0.73774  0.49345  1.0000
  O   O46       1.0  0.53430  0.75300  0.56895  1.0000
  O   O47       1.0  0.92194  0.76867  0.49971  1.0000
  O   O48       1.0  0.92191  0.72869  0.56725  1.0000
