data_image0
_chemical_formula_structural       C4HCH3C4HCH3C4HCH3C4HCH3C4HCH3C4HCH3N12C4HCH3C4HCH3C4HCH3C4HCH3C4HCH3C4HCH3C6H3C6H3C6H3C6H3C6H3C6H3C6H3C6H3C6H3C6H3C6H3C6H3N12C4HCH3C4HCH3C4HCH3C4HCH3C4HCH3C4HCH3N12
_chemical_formula_sum              "C162 H108 N36"
_cell_length_a       39.6325
_cell_length_b       39.6324
_cell_length_c       14.8885
_cell_angle_alpha    90
_cell_angle_beta     90
_cell_angle_gamma    120

_space_group_name_H-M_alt    "P 1"
_space_group_IT_number       1

loop_
  _space_group_symop_operation_xyz
  'x, y, z'

loop_
  _atom_site_type_symbol
  _atom_site_label
  _atom_site_symmetry_multiplicity
  _atom_site_fract_x
  _atom_site_fract_y
  _atom_site_fract_z
  _atom_site_occupancy
  C   C1        1.0  0.26867  0.45702  0.33636  1.0000
  C   C2        1.0  0.23860  0.43042  0.27933  1.0000
  C   C3        1.0  0.20226  0.42940  0.27505  1.0000
  C   C4        1.0  0.19656  0.45517  0.33168  1.0000
  H   H1        1.0  0.24407  0.41339  0.23697  1.0000
  C   C5        1.0  0.17299  0.40401  0.20721  1.0000
  H   H2        1.0  0.18453  0.39099  0.16065  1.0000
  H   H3        1.0  0.16347  0.42089  0.16751  1.0000
  H   H4        1.0  0.14789  0.38026  0.24062  1.0000
  C   C6        1.0  0.57103  0.83222  0.33630  1.0000
  C   C7        1.0  0.59759  0.82872  0.27918  1.0000
  C   C8        1.0  0.59865  0.79342  0.27500  1.0000
  C   C9        1.0  0.57291  0.76197  0.33170  1.0000
  H   H5        1.0  0.61469  0.85126  0.23696  1.0000
  C   C10       1.0  0.62409  0.78955  0.20728  1.0000
  H   H6        1.0  0.63712  0.81411  0.16072  1.0000
  H   H7        1.0  0.60724  0.76315  0.16756  1.0000
  H   H8        1.0  0.64783  0.78823  0.24080  1.0000
  C   C11       1.0  0.19586  0.75940  0.33639  1.0000
  C   C12       1.0  0.19935  0.78945  0.27927  1.0000
  C   C13       1.0  0.23467  0.82579  0.27494  1.0000
  C   C14       1.0  0.26614  0.83150  0.33161  1.0000
  H   H9        1.0  0.17685  0.78397  0.23689  1.0000
  C   C15       1.0  0.23856  0.85505  0.20709  1.0000
  H   H10       1.0  0.21401  0.84349  0.16051  1.0000
  H   H11       1.0  0.26497  0.86458  0.16740  1.0000
  H   H12       1.0  0.23989  0.88014  0.24047  1.0000
  C   C16       1.0  0.75504  0.57539  0.33633  1.0000
  C   C17       1.0  0.78510  0.60198  0.27925  1.0000
  C   C18       1.0  0.82146  0.60303  0.27505  1.0000
  C   C19       1.0  0.82720  0.57733  0.33182  1.0000
  H   H13       1.0  0.77962  0.61901  0.23692  1.0000
  C   C20       1.0  0.85073  0.62843  0.20723  1.0000
  H   H14       1.0  0.83918  0.64143  0.16065  1.0000
  H   H15       1.0  0.86027  0.61156  0.16754  1.0000
  H   H16       1.0  0.87582  0.65219  0.24065  1.0000
  C   C21       1.0  0.45266  0.20020  0.33636  1.0000
  C   C22       1.0  0.42613  0.20373  0.27916  1.0000
  C   C23       1.0  0.42508  0.23903  0.27498  1.0000
  C   C24       1.0  0.45078  0.27046  0.33179  1.0000
  H   H17       1.0  0.40906  0.18120  0.23689  1.0000
  C   C25       1.0  0.39968  0.24292  0.20719  1.0000
  H   H18       1.0  0.38667  0.21837  0.16060  1.0000
  H   H19       1.0  0.41655  0.26933  0.16752  1.0000
  H   H20       1.0  0.37592  0.24424  0.24064  1.0000
  C   C26       1.0  0.82781  0.27308  0.33627  1.0000
  C   C27       1.0  0.82434  0.24301  0.27923  1.0000
  C   C28       1.0  0.78902  0.20667  0.27494  1.0000
  C   C29       1.0  0.75755  0.20097  0.33159  1.0000
  H   H21       1.0  0.84685  0.24848  0.23688  1.0000
  C   C30       1.0  0.78514  0.17739  0.20715  1.0000
  H   H22       1.0  0.80969  0.18894  0.16056  1.0000
  H   H23       1.0  0.75873  0.16783  0.16748  1.0000
  H   H24       1.0  0.78384  0.15231  0.24059  1.0000
  N   N1        1.0  0.12407  0.55477  0.28097  1.0000
  N   N2        1.0  0.12309  0.58715  0.28062  1.0000
  N   N3        1.0  0.47327  0.58987  0.28091  1.0000
  N   N4        1.0  0.44091  0.55649  0.28063  1.0000
  N   N5        1.0  0.43825  0.90410  0.28101  1.0000
  N   N6        1.0  0.47161  0.90508  0.28065  1.0000
  N   N7        1.0  0.89973  0.47774  0.28097  1.0000
  N   N8        1.0  0.90071  0.44536  0.28061  1.0000
  N   N9        1.0  0.55040  0.44256  0.28091  1.0000
  N   N10       1.0  0.58278  0.47592  0.28055  1.0000
  N   N11       1.0  0.58544  0.12832  0.28108  1.0000
  N   N12       1.0  0.55206  0.12732  0.28077  1.0000
  C   C31       1.0  0.97113  0.36799  0.34320  1.0000
  C   C32       1.0  0.99104  0.36210  0.27175  1.0000
  C   C33       1.0  0.03246  0.38239  0.26972  1.0000
  C   C34       1.0  0.05301  0.40802  0.34215  1.0000
  H   H25       1.0  0.97543  0.34570  0.21783  1.0000
  C   C35       1.0  0.05311  0.37915  0.18978  1.0000
  H   H26       1.0  0.03308  0.35951  0.13891  1.0000
  H   H27       1.0  0.07210  0.36793  0.20995  1.0000
  H   H28       1.0  0.07071  0.40774  0.15883  1.0000
  C   C36       1.0  0.66001  0.62365  0.34344  1.0000
  C   C37       1.0  0.66603  0.64957  0.27213  1.0000
  C   C38       1.0  0.64567  0.67063  0.26993  1.0000
  C   C39       1.0  0.61997  0.66549  0.34223  1.0000
  H   H29       1.0  0.68236  0.65029  0.21812  1.0000
  C   C40       1.0  0.64892  0.69451  0.18994  1.0000
  H   H30       1.0  0.66862  0.69415  0.13917  1.0000
  H   H31       1.0  0.66009  0.72471  0.21010  1.0000
  H   H32       1.0  0.62035  0.68348  0.15889  1.0000
  C   C41       1.0  0.40428  0.05690  0.34320  1.0000
  C   C42       1.0  0.37845  0.03701  0.27177  1.0000
  C   C43       1.0  0.35737  0.99560  0.26964  1.0000
  C   C44       1.0  0.36242  0.97505  0.34210  1.0000
  H   H33       1.0  0.37775  0.05264  0.21779  1.0000
  C   C45       1.0  0.33352  0.97495  0.18965  1.0000
  H   H34       1.0  0.33392  0.99499  0.13879  1.0000
  H   H35       1.0  0.30331  0.95594  0.20976  1.0000
  H   H36       1.0  0.34454  0.95737  0.15873  1.0000
  C   C46       1.0  0.05256  0.66434  0.34332  1.0000
  C   C47       1.0  0.03272  0.67039  0.27194  1.0000
  C   C48       1.0  0.99130  0.65015  0.26984  1.0000
  C   C49       1.0  0.97074  0.62451  0.34223  1.0000
  H   H37       1.0  0.04836  0.68683  0.21809  1.0000
  C   C50       1.0  0.97068  0.65346  0.18994  1.0000
  H   H38       1.0  0.99073  0.67312  0.13913  1.0000
  H   H39       1.0  0.95172  0.66470  0.21019  1.0000
  H   H40       1.0  0.95305  0.62489  0.15892  1.0000
  C   C51       1.0  0.36372  0.40876  0.34350  1.0000
  C   C52       1.0  0.35764  0.38283  0.27218  1.0000
  C   C53       1.0  0.37798  0.36176  0.26995  1.0000
  C   C54       1.0  0.40366  0.36688  0.34228  1.0000
  H   H41       1.0  0.34133  0.38214  0.21817  1.0000
  C   C55       1.0  0.37474  0.33790  0.18994  1.0000
  H   H42       1.0  0.35504  0.33826  0.13918  1.0000
  H   H43       1.0  0.36357  0.30769  0.21007  1.0000
  H   H44       1.0  0.40331  0.34893  0.15889  1.0000
  C   C56       1.0  0.61938  0.97552  0.34321  1.0000
  C   C57       1.0  0.64519  0.99542  0.27177  1.0000
  C   C58       1.0  0.66631  0.03684  0.26973  1.0000
  C   C59       1.0  0.66130  0.05742  0.34218  1.0000
  H   H45       1.0  0.64598  0.97981  0.21785  1.0000
  C   C60       1.0  0.69020  0.05749  0.18979  1.0000
  H   H46       1.0  0.68980  0.03746  0.13890  1.0000
  H   H47       1.0  0.72042  0.07647  0.20997  1.0000
  H   H48       1.0  0.67923  0.07510  0.15886  1.0000
  C   C61       1.0  0.14020  0.50863  0.33621  1.0000
  C   C62       1.0  0.10163  0.47701  0.33910  1.0000
  C   C63       1.0  0.09304  0.43782  0.33934  1.0000
  C   C64       1.0  0.12453  0.43049  0.33720  1.0000
  C   C65       1.0  0.16379  0.46130  0.33181  1.0000
  C   C66       1.0  0.17071  0.50008  0.33070  1.0000
  H   H49       1.0  0.11867  0.40238  0.34285  1.0000
  H   H50       1.0  0.19862  0.52272  0.32367  1.0000
  H   H51       1.0  0.07909  0.48272  0.34173  1.0000
  C   C67       1.0  0.51939  0.65214  0.33610  1.0000
  C   C68       1.0  0.55100  0.64517  0.33905  1.0000
  C   C69       1.0  0.59019  0.67575  0.33933  1.0000
  C   C70       1.0  0.59755  0.71459  0.33713  1.0000
  C   C71       1.0  0.56676  0.72306  0.33179  1.0000
  C   C72       1.0  0.52796  0.69120  0.33062  1.0000
  H   H52       1.0  0.62565  0.73681  0.34295  1.0000
  H   H53       1.0  0.50534  0.69650  0.32358  1.0000
  H   H54       1.0  0.54528  0.61692  0.34171  1.0000
  C   C73       1.0  0.37596  0.88792  0.33622  1.0000
  C   C74       1.0  0.38288  0.92648  0.33906  1.0000
  C   C75       1.0  0.35226  0.93504  0.33931  1.0000
  C   C76       1.0  0.31344  0.90353  0.33708  1.0000
  C   C77       1.0  0.30502  0.86428  0.33180  1.0000
  C   C78       1.0  0.33691  0.85739  0.33069  1.0000
  H   H55       1.0  0.29119  0.90937  0.34283  1.0000
  H   H56       1.0  0.33165  0.82948  0.32367  1.0000
  H   H57       1.0  0.41111  0.94903  0.34172  1.0000
  C   C79       1.0  0.88357  0.52386  0.33618  1.0000
  C   C80       1.0  0.92214  0.55550  0.33905  1.0000
  C   C81       1.0  0.93071  0.59468  0.33937  1.0000
  C   C82       1.0  0.89921  0.60200  0.33723  1.0000
  C   C83       1.0  0.85996  0.57119  0.33187  1.0000
  C   C84       1.0  0.85305  0.53240  0.33069  1.0000
  H   H58       1.0  0.90507  0.63010  0.34298  1.0000
  H   H59       1.0  0.82514  0.50977  0.32370  1.0000
  H   H60       1.0  0.94468  0.54980  0.34169  1.0000
  C   C85       1.0  0.50427  0.38029  0.33618  1.0000
  C   C86       1.0  0.47265  0.38724  0.33906  1.0000
  C   C87       1.0  0.43346  0.35664  0.33936  1.0000
  C   C88       1.0  0.42612  0.31782  0.33721  1.0000
  C   C89       1.0  0.45693  0.30936  0.33186  1.0000
  C   C90       1.0  0.49572  0.34123  0.33067  1.0000
  H   H61       1.0  0.39803  0.29558  0.34298  1.0000
  H   H62       1.0  0.51835  0.33595  0.32367  1.0000
  H   H63       1.0  0.47836  0.41548  0.34173  1.0000
  C   C91       1.0  0.64773  0.14453  0.33623  1.0000
  C   C92       1.0  0.64082  0.10597  0.33912  1.0000
  C   C93       1.0  0.67144  0.09742  0.33939  1.0000
  C   C94       1.0  0.71026  0.12893  0.33721  1.0000
  C   C95       1.0  0.71867  0.16818  0.33179  1.0000
  C   C96       1.0  0.68678  0.17506  0.33065  1.0000
  H   H64       1.0  0.73251  0.12310  0.34285  1.0000
  H   H65       1.0  0.69204  0.20297  0.32361  1.0000
  H   H66       1.0  0.61259  0.08342  0.34178  1.0000
  C   C97       1.0  0.50518  0.14307  0.33782  1.0000
  C   C98       1.0  0.47331  0.10464  0.33775  1.0000
  C   C99       1.0  0.43431  0.09662  0.33819  1.0000
  C   C100      1.0  0.42738  0.12836  0.33477  1.0000
  C   C101      1.0  0.45866  0.16750  0.33688  1.0000
  C   C102      1.0  0.49730  0.17409  0.33970  1.0000
  H   H67       1.0  0.39925  0.12286  0.33539  1.0000
  H   H68       1.0  0.52032  0.20206  0.33868  1.0000
  H   H69       1.0  0.47868  0.08186  0.33860  1.0000
  C   C103      1.0  0.64539  0.52282  0.33770  1.0000
  C   C104      1.0  0.63880  0.55467  0.33774  1.0000
  C   C105      1.0  0.66975  0.59368  0.33823  1.0000
  C   C106      1.0  0.70844  0.60064  0.33481  1.0000
  C   C107      1.0  0.71633  0.56938  0.33683  1.0000
  C   C108      1.0  0.68430  0.53072  0.33951  1.0000
  H   H70       1.0  0.73106  0.62878  0.33551  1.0000
  H   H71       1.0  0.68927  0.50772  0.33851  1.0000
  H   H72       1.0  0.61065  0.54927  0.33864  1.0000
  C   C109      1.0  0.88497  0.38273  0.33772  1.0000
  C   C110      1.0  0.92339  0.38928  0.33768  1.0000
  C   C111      1.0  0.93142  0.35831  0.33813  1.0000
  C   C112      1.0  0.89967  0.31963  0.33474  1.0000
  C   C113      1.0  0.86053  0.31178  0.33682  1.0000
  C   C114      1.0  0.85394  0.34383  0.33965  1.0000
  H   H73       1.0  0.90517  0.29700  0.33537  1.0000
  H   H74       1.0  0.82598  0.33889  0.33856  1.0000
  H   H75       1.0  0.94617  0.41743  0.33849  1.0000
  C   C115      1.0  0.51850  0.88933  0.33776  1.0000
  C   C116      1.0  0.55036  0.92776  0.33773  1.0000
  C   C117      1.0  0.58936  0.93580  0.33817  1.0000
  C   C118      1.0  0.59631  0.90407  0.33463  1.0000
  C   C119      1.0  0.56503  0.86493  0.33685  1.0000
  C   C120      1.0  0.52638  0.85832  0.33968  1.0000
  H   H76       1.0  0.62444  0.90957  0.33543  1.0000
  H   H77       1.0  0.50337  0.83035  0.33860  1.0000
  H   H78       1.0  0.54498  0.95054  0.33857  1.0000
  C   C121      1.0  0.37832  0.50958  0.33785  1.0000
  C   C122      1.0  0.38490  0.47773  0.33786  1.0000
  C   C123      1.0  0.35395  0.43872  0.33830  1.0000
  C   C124      1.0  0.31526  0.43176  0.33473  1.0000
  C   C125      1.0  0.30738  0.46303  0.33690  1.0000
  C   C126      1.0  0.33941  0.50168  0.33973  1.0000
  H   H79       1.0  0.29264  0.40362  0.33555  1.0000
  H   H80       1.0  0.33444  0.52468  0.33864  1.0000
  H   H81       1.0  0.41306  0.48313  0.33879  1.0000
  C   C127      1.0  0.13879  0.64975  0.33778  1.0000
  C   C128      1.0  0.10036  0.64316  0.33775  1.0000
  C   C129      1.0  0.09229  0.67410  0.33819  1.0000
  C   C130      1.0  0.12402  0.71280  0.33473  1.0000
  C   C131      1.0  0.16316  0.72068  0.33689  1.0000
  C   C132      1.0  0.16980  0.68866  0.33967  1.0000
  H   H82       1.0  0.11849  0.73541  0.33548  1.0000
  H   H83       1.0  0.19777  0.69362  0.33865  1.0000
  H   H84       1.0  0.07760  0.61500  0.33865  1.0000
  N   N13       1.0  0.22705  0.47939  0.38508  1.0000
  N   N14       1.0  0.26047  0.48044  0.38726  1.0000
  N   N15       1.0  0.54866  0.76823  0.38503  1.0000
  N   N16       1.0  0.54760  0.80059  0.38718  1.0000
  N   N17       1.0  0.25986  0.80102  0.38505  1.0000
  N   N18       1.0  0.22749  0.76760  0.38725  1.0000
  N   N19       1.0  0.79668  0.55306  0.38509  1.0000
  N   N20       1.0  0.76324  0.55197  0.38721  1.0000
  N   N21       1.0  0.47503  0.26419  0.38508  1.0000
  N   N22       1.0  0.47609  0.23183  0.38722  1.0000
  N   N23       1.0  0.76383  0.23146  0.38497  1.0000
  N   N24       1.0  0.79619  0.26489  0.38714  1.0000
  C   C133      1.0  0.14502  0.61738  0.33644  1.0000
  C   C134      1.0  0.16989  0.61274  0.39675  1.0000
  C   C135      1.0  0.17073  0.57737  0.39911  1.0000
  C   C136      1.0  0.14677  0.54749  0.33706  1.0000
  H   H85       1.0  0.18549  0.63423  0.44264  1.0000
  C   C137      1.0  0.19379  0.57161  0.47009  1.0000
  H   H86       1.0  0.20651  0.59565  0.51808  1.0000
  H   H87       1.0  0.21765  0.56942  0.43982  1.0000
  H   H88       1.0  0.17518  0.54499  0.50767  1.0000
  C   C138      1.0  0.41069  0.54817  0.33650  1.0000
  C   C139      1.0  0.41532  0.57768  0.39679  1.0000
  C   C140      1.0  0.45066  0.61393  0.39902  1.0000
  C   C141      1.0  0.48053  0.61987  0.33691  1.0000
  H   H89       1.0  0.39382  0.57182  0.44261  1.0000
  C   C142      1.0  0.45641  0.64276  0.46995  1.0000
  H   H90       1.0  0.43237  0.63144  0.51797  1.0000
  H   H91       1.0  0.45855  0.66878  0.43962  1.0000
  H   H92       1.0  0.48304  0.65082  0.50750  1.0000
  C   C143      1.0  0.47991  0.88313  0.33641  1.0000
  C   C144      1.0  0.45038  0.85820  0.39662  1.0000
  C   C145      1.0  0.41417  0.85737  0.39902  1.0000
  C   C146      1.0  0.40827  0.88139  0.33710  1.0000
  H   H93       1.0  0.45626  0.84261  0.44252  1.0000
  C   C147      1.0  0.38536  0.83430  0.47001  1.0000
  H   H94       1.0  0.39669  0.82157  0.51797  1.0000
  H   H95       1.0  0.35931  0.81044  0.43975  1.0000
  H   H96       1.0  0.37736  0.85291  0.50763  1.0000
  C   C148      1.0  0.87877  0.41512  0.33640  1.0000
  C   C149      1.0  0.85390  0.41976  0.39671  1.0000
  C   C150      1.0  0.85302  0.45511  0.39904  1.0000
  C   C151      1.0  0.87703  0.48501  0.33708  1.0000
  H   H97       1.0  0.83823  0.39824  0.44247  1.0000
  C   C152      1.0  0.82992  0.46084  0.46994  1.0000
  H   H98       1.0  0.81720  0.43680  0.51794  1.0000
  H   H99       1.0  0.80604  0.46298  0.43960  1.0000
  H   H100      1.0  0.84848  0.48747  0.50753  1.0000
  C   C153      1.0  0.61302  0.48423  0.33633  1.0000
  C   C154      1.0  0.60841  0.45470  0.39657  1.0000
  C   C155      1.0  0.57303  0.41849  0.39898  1.0000
  C   C156      1.0  0.54312  0.41259  0.33703  1.0000
  H   H101      1.0  0.62988  0.46059  0.44249  1.0000
  C   C157      1.0  0.56728  0.38968  0.46997  1.0000
  H   H102      1.0  0.59134  0.40100  0.51793  1.0000
  H   H103      1.0  0.56508  0.36362  0.43971  1.0000
  H   H104      1.0  0.54068  0.38168  0.50759  1.0000
  C   C158      1.0  0.54376  0.14927  0.33653  1.0000
  C   C159      1.0  0.57329  0.17420  0.39673  1.0000
  C   C160      1.0  0.60952  0.17508  0.39906  1.0000
  C   C161      1.0  0.61543  0.15108  0.33708  1.0000
  H   H105      1.0  0.56742  0.18982  0.44256  1.0000
  C   C162      1.0  0.63835  0.19817  0.47000  1.0000
  H   H106      1.0  0.62702  0.21089  0.51798  1.0000
  H   H107      1.0  0.66438  0.22204  0.43969  1.0000
  H   H108      1.0  0.64638  0.17959  0.50760  1.0000
  N   N25       1.0  0.03131  0.41144  0.40845  1.0000
  N   N26       1.0  0.99332  0.39299  0.40898  1.0000
  N   N27       1.0  0.61654  0.64040  0.40861  1.0000
  N   N28       1.0  0.63500  0.62088  0.40916  1.0000
  N   N29       1.0  0.38753  0.99671  0.40846  1.0000
  N   N30       1.0  0.40707  0.03469  0.40898  1.0000
  N   N31       1.0  0.99236  0.62099  0.40858  1.0000
  N   N32       1.0  0.03035  0.63938  0.40912  1.0000
  N   N33       1.0  0.40711  0.39195  0.40872  1.0000
  N   N34       1.0  0.38869  0.41150  0.40929  1.0000
  N   N35       1.0  0.63613  0.03571  0.40842  1.0000
  N   N36       1.0  0.61658  0.99773  0.40895  1.0000
