data_image0
_chemical_formula_structural       CH4CH4C3HNO2NHC3HNO2NHC3HNO2NHC5H2CHCHCHC5H2CHCHCHC3HNO2NHC3HNO2NHC3HNO2NHCH4CH4C3HNO2NHC3HNO2NHC3HNO2NHC5H2CHCHCHC5H2CHCHCHC3HNO2NHC3HNO2NHC3HNO2NHCH4CH4C3HNO2NHC3HNO2NHC3HNO2NHC5H2CHCHCHC5H2CHCHCHC3HNO2NHC3HNO2NHC3HNO2NHCH4CH4C3HNO2NHC3HNO2NHC3HNO2NHC5H2CHCHCHC5H2CHCHCHC3HNO2NHC3HNO2NHC3HNO2NH
_chemical_formula_sum              "C144 H120 N48 O48"
_cell_length_a       43.7695
_cell_length_b       43.7696
_cell_length_c       15.014
_cell_angle_alpha    90
_cell_angle_beta     90
_cell_angle_gamma    120

_space_group_name_H-M_alt    "P 1"
_space_group_IT_number       1

loop_
  _space_group_symop_operation_xyz
  'x, y, z'

loop_
  _atom_site_type_symbol
  _atom_site_label
  _atom_site_symmetry_multiplicity
  _atom_site_fract_x
  _atom_site_fract_y
  _atom_site_fract_z
  _atom_site_occupancy
  C   C1        1.0  0.20243  0.35627  0.24177  1.0000
  H   H1        1.0  0.22908  0.37314  0.24409  1.0000
  H   H2        1.0  0.23356  0.31717  0.19107  1.0000
  H   H3        1.0  0.08268  0.26527  0.19084  1.0000
  H   H4        1.0  0.18166  0.41615  0.19085  1.0000
  C   C2        1.0  0.29664  0.14098  0.41153  1.0000
  H   H5        1.0  0.27030  0.12279  0.40959  1.0000
  H   H6        1.0  0.26372  0.17499  0.34613  1.0000
  H   H7        1.0  0.41033  0.23511  0.34599  1.0000
  H   H8        1.0  0.32384  0.08850  0.34600  1.0000
  C   C3        1.0  0.22338  0.25727  0.29051  1.0000
  C   C4        1.0  0.25340  0.26175  0.24440  1.0000
  C   C5        1.0  0.27619  0.25124  0.28296  1.0000
  H   H9        1.0  0.25880  0.27285  0.18231  1.0000
  N   N1        1.0  0.30631  0.25538  0.23724  1.0000
  O   O1        1.0  0.29795  0.23813  0.16577  1.0000
  O   O2        1.0  0.32746  0.28723  0.21975  1.0000
  N   N2        1.0  0.20063  0.26841  0.25528  1.0000
  H   H10       1.0  0.19132  0.25675  0.19432  1.0000
  C   C6        1.0  0.24157  0.46589  0.29035  1.0000
  C   C7        1.0  0.23708  0.49143  0.24426  1.0000
  C   C8        1.0  0.24759  0.02471  0.28283  1.0000
  H   H11       1.0  0.22598  0.48572  0.18216  1.0000
  N   N3        1.0  0.24346  0.05071  0.23712  1.0000
  O   O3        1.0  0.26071  0.05960  0.16566  1.0000
  O   O4        1.0  0.21161  0.04001  0.21964  1.0000
  N   N4        1.0  0.23042  0.43199  0.25511  1.0000
  H   H12       1.0  0.24209  0.43434  0.19416  1.0000
  C   C9        1.0  0.03294  0.27545  0.29027  1.0000
  C   C10       1.0  0.00741  0.24543  0.24417  1.0000
  C   C11       1.0  0.47412  0.22265  0.28273  1.0000
  H   H13       1.0  0.01311  0.24003  0.18207  1.0000
  N   N5        1.0  0.44812  0.19252  0.23702  1.0000
  O   O5        1.0  0.43923  0.20089  0.16556  1.0000
  O   O6        1.0  0.45882  0.17137  0.21953  1.0000
  N   N6        1.0  0.06684  0.29820  0.25503  1.0000
  H   H14       1.0  0.06449  0.30751  0.19408  1.0000
  C   C12       1.0  0.18981  0.31958  0.24213  1.0000
  C   C13       1.0  0.17926  0.37001  0.24200  1.0000
  C   C14       1.0  0.14256  0.34593  0.24166  1.0000
  C   C15       1.0  0.12883  0.30902  0.24196  1.0000
  C   C16       1.0  0.15290  0.29640  0.24167  1.0000
  H   H15       1.0  0.12569  0.35571  0.24389  1.0000
  H   H16       1.0  0.14312  0.26975  0.24405  1.0000
  C   C17       1.0  0.21595  0.30729  0.24877  1.0000
  H   H17       1.0  0.23178  0.31960  0.30848  1.0000
  C   C18       1.0  0.09040  0.28288  0.24855  1.0000
  H   H18       1.0  0.08687  0.26704  0.30825  1.0000
  C   C19       1.0  0.19154  0.40843  0.24858  1.0000
  H   H19       1.0  0.17922  0.41196  0.30826  1.0000
  C   C20       1.0  0.30694  0.17716  0.41147  1.0000
  C   C21       1.0  0.32167  0.12954  0.41141  1.0000
  C   C22       1.0  0.35785  0.15541  0.41145  1.0000
  C   C23       1.0  0.36929  0.19189  0.41136  1.0000
  C   C24       1.0  0.34342  0.20220  0.41151  1.0000
  H   H20       1.0  0.37605  0.14728  0.40946  1.0000
  H   H21       1.0  0.35155  0.22853  0.40955  1.0000
  C   C25       1.0  0.27893  0.18701  0.40681  1.0000
  H   H22       1.0  0.26124  0.17523  0.46374  1.0000
  C   C26       1.0  0.40714  0.21990  0.40666  1.0000
  H   H23       1.0  0.41307  0.23759  0.46360  1.0000
  C   C27       1.0  0.31183  0.09169  0.40670  1.0000
  H   H24       1.0  0.32360  0.08576  0.46360  1.0000
  C   C28       1.0  0.26858  0.23591  0.36903  1.0000
  C   C29       1.0  0.23844  0.23128  0.41614  1.0000
  C   C30       1.0  0.21604  0.24192  0.37581  1.0000
  H   H25       1.0  0.19445  0.23895  0.40979  1.0000
  N   N7        1.0  0.23177  0.21673  0.50288  1.0000
  O   O7        1.0  0.20238  0.18882  0.50719  1.0000
  O   O8        1.0  0.23234  0.23813  0.55959  1.0000
  N   N8        1.0  0.29195  0.22555  0.40497  1.0000
  H   H26       1.0  0.30085  0.23674  0.46655  1.0000
  C   C31       1.0  0.26292  0.03243  0.36890  1.0000
  C   C32       1.0  0.26755  0.00692  0.41600  1.0000
  C   C33       1.0  0.25691  0.47389  0.37565  1.0000
  H   H27       1.0  0.25987  0.45526  0.40962  1.0000
  N   N9        1.0  0.28210  0.01480  0.50274  1.0000
  O   O9        1.0  0.31000  0.01331  0.50705  1.0000
  O   O10       1.0  0.26070  0.99397  0.55944  1.0000
  N   N10       1.0  0.27328  0.06616  0.40485  1.0000
  H   H28       1.0  0.26209  0.06386  0.46644  1.0000
  C   C34       1.0  0.46640  0.23025  0.36881  1.0000
  C   C35       1.0  0.49191  0.26040  0.41592  1.0000
  C   C36       1.0  0.02494  0.28279  0.37557  1.0000
  H   H29       1.0  0.04357  0.30438  0.40956  1.0000
  N   N11       1.0  0.48403  0.26706  0.50268  1.0000
  O   O11       1.0  0.48552  0.29644  0.50701  1.0000
  O   O12       1.0  0.50487  0.26648  0.55936  1.0000
  N   N12       1.0  0.43267  0.20688  0.40477  1.0000
  H   H30       1.0  0.43498  0.19798  0.46634  1.0000
  C   C37       1.0  0.20243  0.85627  0.24177  1.0000
  H   H31       1.0  0.22908  0.87314  0.24409  1.0000
  H   H32       1.0  0.23356  0.81717  0.19107  1.0000
  H   H33       1.0  0.08268  0.76527  0.19084  1.0000
  H   H34       1.0  0.18166  0.91615  0.19085  1.0000
  C   C38       1.0  0.29664  0.64098  0.41153  1.0000
  H   H35       1.0  0.27030  0.62279  0.40959  1.0000
  H   H36       1.0  0.26372  0.67499  0.34613  1.0000
  H   H37       1.0  0.41033  0.73511  0.34599  1.0000
  H   H38       1.0  0.32384  0.58850  0.34600  1.0000
  C   C39       1.0  0.22338  0.75726  0.29051  1.0000
  C   C40       1.0  0.25340  0.76175  0.24440  1.0000
  C   C41       1.0  0.27619  0.75124  0.28296  1.0000
  H   H39       1.0  0.25880  0.77286  0.18231  1.0000
  N   N13       1.0  0.30631  0.75538  0.23724  1.0000
  O   O13       1.0  0.29795  0.73813  0.16577  1.0000
  O   O14       1.0  0.32746  0.78722  0.21975  1.0000
  N   N14       1.0  0.20063  0.76841  0.25528  1.0000
  H   H40       1.0  0.19132  0.75674  0.19432  1.0000
  C   C42       1.0  0.24157  0.96589  0.29035  1.0000
  C   C43       1.0  0.23708  0.99143  0.24426  1.0000
  C   C44       1.0  0.24759  0.52472  0.28283  1.0000
  H   H41       1.0  0.22598  0.98572  0.18216  1.0000
  N   N15       1.0  0.24346  0.55071  0.23712  1.0000
  O   O15       1.0  0.26071  0.55960  0.16566  1.0000
  O   O16       1.0  0.21161  0.54001  0.21964  1.0000
  N   N16       1.0  0.23042  0.93199  0.25511  1.0000
  H   H42       1.0  0.24209  0.93434  0.19416  1.0000
  C   C45       1.0  0.03294  0.77545  0.29027  1.0000
  C   C46       1.0  0.00741  0.74543  0.24417  1.0000
  C   C47       1.0  0.47412  0.72265  0.28273  1.0000
  H   H43       1.0  0.01311  0.74003  0.18207  1.0000
  N   N17       1.0  0.44812  0.69252  0.23702  1.0000
  O   O17       1.0  0.43923  0.70088  0.16556  1.0000
  O   O18       1.0  0.45882  0.67137  0.21953  1.0000
  N   N18       1.0  0.06684  0.79820  0.25503  1.0000
  H   H44       1.0  0.06450  0.80751  0.19408  1.0000
  C   C48       1.0  0.18981  0.81958  0.24213  1.0000
  C   C49       1.0  0.17925  0.87001  0.24200  1.0000
  C   C50       1.0  0.14256  0.84593  0.24166  1.0000
  C   C51       1.0  0.12883  0.80902  0.24196  1.0000
  C   C52       1.0  0.15290  0.79640  0.24167  1.0000
  H   H45       1.0  0.12569  0.85571  0.24389  1.0000
  H   H46       1.0  0.14312  0.76975  0.24405  1.0000
  C   C53       1.0  0.21595  0.80729  0.24877  1.0000
  H   H47       1.0  0.23177  0.81960  0.30848  1.0000
  C   C54       1.0  0.09040  0.78288  0.24855  1.0000
  H   H48       1.0  0.08687  0.76705  0.30825  1.0000
  C   C55       1.0  0.19154  0.90843  0.24858  1.0000
  H   H49       1.0  0.17922  0.91196  0.30826  1.0000
  C   C56       1.0  0.30694  0.67716  0.41147  1.0000
  C   C57       1.0  0.32167  0.62954  0.41141  1.0000
  C   C58       1.0  0.35785  0.65541  0.41145  1.0000
  C   C59       1.0  0.36929  0.69189  0.41136  1.0000
  C   C60       1.0  0.34342  0.70220  0.41151  1.0000
  H   H50       1.0  0.37605  0.64728  0.40946  1.0000
  H   H51       1.0  0.35155  0.72853  0.40955  1.0000
  C   C61       1.0  0.27893  0.68700  0.40681  1.0000
  H   H52       1.0  0.26124  0.67523  0.46374  1.0000
  C   C62       1.0  0.40714  0.71990  0.40666  1.0000
  H   H53       1.0  0.41307  0.73759  0.46360  1.0000
  C   C63       1.0  0.31183  0.59169  0.40670  1.0000
  H   H54       1.0  0.32360  0.58576  0.46360  1.0000
  C   C64       1.0  0.26858  0.73591  0.36903  1.0000
  C   C65       1.0  0.23844  0.73128  0.41614  1.0000
  C   C66       1.0  0.21604  0.74192  0.37581  1.0000
  H   H55       1.0  0.19445  0.73895  0.40979  1.0000
  N   N19       1.0  0.23177  0.71673  0.50288  1.0000
  O   O19       1.0  0.20238  0.68882  0.50719  1.0000
  O   O20       1.0  0.23234  0.73813  0.55959  1.0000
  N   N20       1.0  0.29195  0.72555  0.40497  1.0000
  H   H56       1.0  0.30085  0.73674  0.46655  1.0000
  C   C67       1.0  0.26292  0.53243  0.36890  1.0000
  C   C68       1.0  0.26755  0.50692  0.41600  1.0000
  C   C69       1.0  0.25691  0.97389  0.37565  1.0000
  H   H57       1.0  0.25987  0.95526  0.40962  1.0000
  N   N21       1.0  0.28210  0.51480  0.50274  1.0000
  O   O21       1.0  0.31000  0.51331  0.50705  1.0000
  O   O22       1.0  0.26070  0.49397  0.55944  1.0000
  N   N22       1.0  0.27328  0.56616  0.40485  1.0000
  H   H58       1.0  0.26209  0.56386  0.46644  1.0000
  C   C70       1.0  0.46640  0.73025  0.36881  1.0000
  C   C71       1.0  0.49191  0.76040  0.41592  1.0000
  C   C72       1.0  0.02494  0.78279  0.37557  1.0000
  H   H59       1.0  0.04357  0.80438  0.40956  1.0000
  N   N23       1.0  0.48403  0.76706  0.50268  1.0000
  O   O23       1.0  0.48552  0.79644  0.50701  1.0000
  O   O24       1.0  0.50487  0.76648  0.55936  1.0000
  N   N24       1.0  0.43267  0.70688  0.40477  1.0000
  H   H60       1.0  0.43498  0.69798  0.46634  1.0000
  C   C73       1.0  0.70243  0.35627  0.24177  1.0000
  H   H61       1.0  0.72908  0.37314  0.24409  1.0000
  H   H62       1.0  0.73356  0.31717  0.19107  1.0000
  H   H63       1.0  0.58268  0.26527  0.19084  1.0000
  H   H64       1.0  0.68166  0.41615  0.19085  1.0000
  C   C74       1.0  0.79664  0.14098  0.41153  1.0000
  H   H65       1.0  0.77030  0.12279  0.40959  1.0000
  H   H66       1.0  0.76372  0.17499  0.34613  1.0000
  H   H67       1.0  0.91033  0.23511  0.34599  1.0000
  H   H68       1.0  0.82384  0.08850  0.34600  1.0000
  C   C75       1.0  0.72338  0.25727  0.29051  1.0000
  C   C76       1.0  0.75340  0.26175  0.24440  1.0000
  C   C77       1.0  0.77619  0.25124  0.28296  1.0000
  H   H69       1.0  0.75880  0.27285  0.18231  1.0000
  N   N25       1.0  0.80631  0.25538  0.23724  1.0000
  O   O25       1.0  0.79795  0.23813  0.16577  1.0000
  O   O26       1.0  0.82746  0.28723  0.21975  1.0000
  N   N26       1.0  0.70063  0.26841  0.25528  1.0000
  H   H70       1.0  0.69132  0.25675  0.19432  1.0000
  C   C78       1.0  0.74157  0.46589  0.29035  1.0000
  C   C79       1.0  0.73708  0.49143  0.24426  1.0000
  C   C80       1.0  0.74759  0.02471  0.28283  1.0000
  H   H71       1.0  0.72598  0.48572  0.18216  1.0000
  N   N27       1.0  0.74346  0.05071  0.23712  1.0000
  O   O27       1.0  0.76071  0.05960  0.16566  1.0000
  O   O28       1.0  0.71161  0.04001  0.21964  1.0000
  N   N28       1.0  0.73042  0.43199  0.25511  1.0000
  H   H72       1.0  0.74209  0.43434  0.19416  1.0000
  C   C81       1.0  0.53294  0.27545  0.29027  1.0000
  C   C82       1.0  0.50741  0.24543  0.24417  1.0000
  C   C83       1.0  0.97412  0.22265  0.28273  1.0000
  H   H73       1.0  0.51311  0.24003  0.18207  1.0000
  N   N29       1.0  0.94812  0.19252  0.23702  1.0000
  O   O29       1.0  0.93924  0.20089  0.16556  1.0000
  O   O30       1.0  0.95882  0.17137  0.21953  1.0000
  N   N30       1.0  0.56685  0.29820  0.25503  1.0000
  H   H74       1.0  0.56449  0.30751  0.19408  1.0000
  C   C84       1.0  0.68981  0.31958  0.24213  1.0000
  C   C85       1.0  0.67926  0.37001  0.24200  1.0000
  C   C86       1.0  0.64256  0.34593  0.24166  1.0000
  C   C87       1.0  0.62883  0.30902  0.24196  1.0000
  C   C88       1.0  0.65290  0.29640  0.24167  1.0000
  H   H75       1.0  0.62569  0.35571  0.24389  1.0000
  H   H76       1.0  0.64312  0.26975  0.24405  1.0000
  C   C89       1.0  0.71595  0.30729  0.24877  1.0000
  H   H77       1.0  0.73178  0.31960  0.30848  1.0000
  C   C90       1.0  0.59040  0.28288  0.24855  1.0000
  H   H78       1.0  0.58687  0.26704  0.30825  1.0000
  C   C91       1.0  0.69154  0.40843  0.24858  1.0000
  H   H79       1.0  0.67922  0.41196  0.30826  1.0000
  C   C92       1.0  0.80695  0.17716  0.41147  1.0000
  C   C93       1.0  0.82167  0.12954  0.41141  1.0000
  C   C94       1.0  0.85785  0.15541  0.41145  1.0000
  C   C95       1.0  0.86929  0.19189  0.41136  1.0000
  C   C96       1.0  0.84342  0.20220  0.41151  1.0000
  H   H80       1.0  0.87605  0.14728  0.40946  1.0000
  H   H81       1.0  0.85155  0.22853  0.40955  1.0000
  C   C97       1.0  0.77893  0.18701  0.40681  1.0000
  H   H82       1.0  0.76124  0.17523  0.46374  1.0000
  C   C98       1.0  0.90715  0.21990  0.40666  1.0000
  H   H83       1.0  0.91307  0.23759  0.46360  1.0000
  C   C99       1.0  0.81182  0.09169  0.40670  1.0000
  H   H84       1.0  0.82360  0.08576  0.46360  1.0000
  C   C100      1.0  0.76858  0.23591  0.36903  1.0000
  C   C101      1.0  0.73844  0.23128  0.41614  1.0000
  C   C102      1.0  0.71604  0.24192  0.37581  1.0000
  H   H85       1.0  0.69445  0.23895  0.40979  1.0000
  N   N31       1.0  0.73177  0.21673  0.50288  1.0000
  O   O31       1.0  0.70239  0.18882  0.50719  1.0000
  O   O32       1.0  0.73235  0.23813  0.55959  1.0000
  N   N32       1.0  0.79195  0.22555  0.40497  1.0000
  H   H86       1.0  0.80085  0.23674  0.46655  1.0000
  C   C103      1.0  0.76292  0.03243  0.36890  1.0000
  C   C104      1.0  0.76755  0.00692  0.41600  1.0000
  C   C105      1.0  0.75691  0.47389  0.37565  1.0000
  H   H87       1.0  0.75988  0.45526  0.40962  1.0000
  N   N33       1.0  0.78210  0.01480  0.50274  1.0000
  O   O33       1.0  0.81000  0.01331  0.50705  1.0000
  O   O34       1.0  0.76070  0.99397  0.55944  1.0000
  N   N34       1.0  0.77328  0.06616  0.40485  1.0000
  H   H88       1.0  0.76209  0.06386  0.46644  1.0000
  C   C106      1.0  0.96640  0.23025  0.36881  1.0000
  C   C107      1.0  0.99191  0.26040  0.41592  1.0000
  C   C108      1.0  0.52494  0.28279  0.37557  1.0000
  H   H89       1.0  0.54357  0.30438  0.40956  1.0000
  N   N35       1.0  0.98403  0.26706  0.50268  1.0000
  O   O35       1.0  0.98552  0.29644  0.50701  1.0000
  O   O36       1.0  0.00487  0.26648  0.55936  1.0000
  N   N36       1.0  0.93267  0.20688  0.40477  1.0000
  H   H90       1.0  0.93498  0.19798  0.46634  1.0000
  C   C109      1.0  0.70243  0.85627  0.24177  1.0000
  H   H91       1.0  0.72908  0.87314  0.24409  1.0000
  H   H92       1.0  0.73356  0.81717  0.19107  1.0000
  H   H93       1.0  0.58268  0.76527  0.19084  1.0000
  H   H94       1.0  0.68167  0.91615  0.19085  1.0000
  C   C110      1.0  0.79664  0.64098  0.41153  1.0000
  H   H95       1.0  0.77030  0.62279  0.40959  1.0000
  H   H96       1.0  0.76372  0.67499  0.34613  1.0000
  H   H97       1.0  0.91033  0.73511  0.34599  1.0000
  H   H98       1.0  0.82384  0.58850  0.34600  1.0000
  C   C111      1.0  0.72338  0.75726  0.29051  1.0000
  C   C112      1.0  0.75341  0.76175  0.24440  1.0000
  C   C113      1.0  0.77619  0.75124  0.28296  1.0000
  H   H99       1.0  0.75880  0.77286  0.18231  1.0000
  N   N37       1.0  0.80631  0.75538  0.23724  1.0000
  O   O37       1.0  0.79795  0.73813  0.16577  1.0000
  O   O38       1.0  0.82746  0.78722  0.21975  1.0000
  N   N38       1.0  0.70063  0.76841  0.25528  1.0000
  H   H100      1.0  0.69132  0.75674  0.19432  1.0000
  C   C114      1.0  0.74157  0.96589  0.29035  1.0000
  C   C115      1.0  0.73708  0.99143  0.24426  1.0000
  C   C116      1.0  0.74759  0.52472  0.28283  1.0000
  H   H101      1.0  0.72598  0.98572  0.18216  1.0000
  N   N39       1.0  0.74346  0.55071  0.23712  1.0000
  O   O39       1.0  0.76071  0.55960  0.16566  1.0000
  O   O40       1.0  0.71161  0.54001  0.21964  1.0000
  N   N40       1.0  0.73042  0.93199  0.25511  1.0000
  H   H102      1.0  0.74209  0.93434  0.19416  1.0000
  C   C117      1.0  0.53294  0.77545  0.29027  1.0000
  C   C118      1.0  0.50741  0.74543  0.24417  1.0000
  C   C119      1.0  0.97412  0.72265  0.28273  1.0000
  H   H103      1.0  0.51311  0.74003  0.18207  1.0000
  N   N41       1.0  0.94812  0.69252  0.23702  1.0000
  O   O41       1.0  0.93923  0.70088  0.16556  1.0000
  O   O42       1.0  0.95882  0.67137  0.21953  1.0000
  N   N42       1.0  0.56684  0.79820  0.25503  1.0000
  H   H104      1.0  0.56450  0.80751  0.19408  1.0000
  C   C120      1.0  0.68981  0.81958  0.24213  1.0000
  C   C121      1.0  0.67926  0.87001  0.24200  1.0000
  C   C122      1.0  0.64256  0.84593  0.24166  1.0000
  C   C123      1.0  0.62883  0.80902  0.24196  1.0000
  C   C124      1.0  0.65290  0.79640  0.24167  1.0000
  H   H105      1.0  0.62569  0.85571  0.24389  1.0000
  H   H106      1.0  0.64312  0.76975  0.24405  1.0000
  C   C125      1.0  0.71595  0.80729  0.24877  1.0000
  H   H107      1.0  0.73177  0.81960  0.30848  1.0000
  C   C126      1.0  0.59040  0.78288  0.24855  1.0000
  H   H108      1.0  0.58687  0.76705  0.30825  1.0000
  C   C127      1.0  0.69154  0.90843  0.24858  1.0000
  H   H109      1.0  0.67922  0.91196  0.30826  1.0000
  C   C128      1.0  0.80695  0.67716  0.41147  1.0000
  C   C129      1.0  0.82167  0.62954  0.41141  1.0000
  C   C130      1.0  0.85785  0.65541  0.41145  1.0000
  C   C131      1.0  0.86929  0.69189  0.41136  1.0000
  C   C132      1.0  0.84342  0.70220  0.41151  1.0000
  H   H110      1.0  0.87605  0.64728  0.40946  1.0000
  H   H111      1.0  0.85155  0.72853  0.40955  1.0000
  C   C133      1.0  0.77893  0.68700  0.40681  1.0000
  H   H112      1.0  0.76124  0.67523  0.46374  1.0000
  C   C134      1.0  0.90715  0.71990  0.40666  1.0000
  H   H113      1.0  0.91307  0.73759  0.46360  1.0000
  C   C135      1.0  0.81183  0.59169  0.40670  1.0000
  H   H114      1.0  0.82360  0.58576  0.46360  1.0000
  C   C136      1.0  0.76858  0.73591  0.36903  1.0000
  C   C137      1.0  0.73844  0.73128  0.41614  1.0000
  C   C138      1.0  0.71605  0.74192  0.37581  1.0000
  H   H115      1.0  0.69445  0.73895  0.40979  1.0000
  N   N43       1.0  0.73177  0.71673  0.50288  1.0000
  O   O43       1.0  0.70239  0.68882  0.50719  1.0000
  O   O44       1.0  0.73235  0.73813  0.55959  1.0000
  N   N44       1.0  0.79195  0.72555  0.40497  1.0000
  H   H116      1.0  0.80085  0.73674  0.46655  1.0000
  C   C139      1.0  0.76292  0.53243  0.36890  1.0000
  C   C140      1.0  0.76755  0.50692  0.41600  1.0000
  C   C141      1.0  0.75691  0.97389  0.37565  1.0000
  H   H117      1.0  0.75987  0.95526  0.40962  1.0000
  N   N45       1.0  0.78210  0.51480  0.50274  1.0000
  O   O45       1.0  0.81000  0.51331  0.50705  1.0000
  O   O46       1.0  0.76070  0.49397  0.55944  1.0000
  N   N46       1.0  0.77328  0.56616  0.40485  1.0000
  H   H118      1.0  0.76209  0.56386  0.46644  1.0000
  C   C142      1.0  0.96640  0.73025  0.36881  1.0000
  C   C143      1.0  0.99191  0.76040  0.41592  1.0000
  C   C144      1.0  0.52494  0.78279  0.37557  1.0000
  H   H119      1.0  0.54357  0.80438  0.40956  1.0000
  N   N47       1.0  0.98403  0.76706  0.50268  1.0000
  O   O47       1.0  0.98552  0.79644  0.50701  1.0000
  O   O48       1.0  0.00487  0.76648  0.55936  1.0000
  N   N48       1.0  0.93267  0.70688  0.40477  1.0000
  H   H120      1.0  0.93498  0.69798  0.46634  1.0000
