data_image0
_chemical_formula_structural       C3HOHC3HOHC3HOHC3H2C3H2C3H2NC18H12NC18H12NC18H12NC18H12C3H2C3H2C3H2C3HOHC3HOHC3HOH
_chemical_formula_sum              "C108 H72 O6 N4"
_cell_length_a       38.8509
_cell_length_b       38.8508
_cell_length_c       14.7787
_cell_angle_alpha    90
_cell_angle_beta     90
_cell_angle_gamma    120

_space_group_name_H-M_alt    "P 1"
_space_group_IT_number       1

loop_
  _space_group_symop_operation_xyz
  'x, y, z'

loop_
  _atom_site_type_symbol
  _atom_site_label
  _atom_site_symmetry_multiplicity
  _atom_site_fract_x
  _atom_site_fract_y
  _atom_site_fract_z
  _atom_site_occupancy
  C   C1        1.0  0.26211  0.13354  0.34297  1.0000
  C   C2        1.0  0.23995  0.14535  0.28746  1.0000
  C   C3        1.0  0.19796  0.12388  0.28820  1.0000
  H   H1        1.0  0.18329  0.13403  0.24858  1.0000
  O   O1        1.0  0.25802  0.17779  0.23259  1.0000
  H   H2        1.0  0.26553  0.20106  0.27148  1.0000
  C   C4        1.0  0.87379  0.13090  0.33696  1.0000
  C   C5        1.0  0.87930  0.11383  0.25690  1.0000
  C   C6        1.0  0.90167  0.09421  0.25795  1.0000
  H   H3        1.0  0.90586  0.08401  0.19755  1.0000
  O   O2        1.0  0.86295  0.11474  0.17608  1.0000
  H   H4        1.0  0.83475  0.09406  0.17918  1.0000
  C   C7        1.0  0.87582  0.74608  0.34912  1.0000
  C   C8        1.0  0.89408  0.76841  0.26949  1.0000
  C   C9        1.0  0.91418  0.81039  0.27019  1.0000
  H   H5        1.0  0.92517  0.82455  0.20988  1.0000
  O   O3        1.0  0.89398  0.75093  0.18954  1.0000
  H   H6        1.0  0.91443  0.74317  0.19492  1.0000
  C   C10       1.0  0.62577  0.17509  0.33757  1.0000
  C   C11       1.0  0.60464  0.17697  0.26131  1.0000
  C   C12       1.0  0.56875  0.17732  0.27031  1.0000
  H   H7        1.0  0.55639  0.18119  0.21281  1.0000
  H   H8        1.0  0.61553  0.17890  0.19739  1.0000
  C   C13       1.0  0.83035  0.45373  0.34414  1.0000
  C   C14       1.0  0.82831  0.43109  0.26706  1.0000
  C   C15       1.0  0.82780  0.39473  0.27464  1.0000
  H   H9        1.0  0.82386  0.37887  0.21650  1.0000
  H   H10       1.0  0.82642  0.44040  0.20351  1.0000
  C   C16       1.0  0.55187  0.38090  0.34418  1.0000
  C   C17       1.0  0.57502  0.40221  0.26827  1.0000
  C   C18       1.0  0.61135  0.43792  0.27787  1.0000
  H   H11       1.0  0.62767  0.45031  0.22050  1.0000
  H   H12       1.0  0.56616  0.39155  0.20414  1.0000
  N   N1        1.0  0.00543  0.00438  0.34680  1.0000
  C   C19       1.0  0.04778  0.02573  0.34621  1.0000
  C   C20       1.0  0.98469  0.96193  0.34958  1.0000
  C   C21       1.0  0.98441  0.02576  0.34272  1.0000
  C   C22       1.0  0.99075  0.05459  0.40872  1.0000
  C   C23       1.0  0.96989  0.07557  0.40587  1.0000
  C   C24       1.0  0.94042  0.06771  0.33935  1.0000
  C   C25       1.0  0.93403  0.03811  0.27426  1.0000
  C   C26       1.0  0.95593  0.01809  0.27486  1.0000
  C   C27       1.0  0.06898  0.04202  0.26527  1.0000
  C   C28       1.0  0.11087  0.06275  0.26456  1.0000
  C   C29       1.0  0.13323  0.06855  0.34481  1.0000
  C   C30       1.0  0.11139  0.05221  0.42579  1.0000
  C   C31       1.0  0.06949  0.03094  0.42644  1.0000
  C   C32       1.0  0.99194  0.93995  0.28391  1.0000
  C   C33       1.0  0.97140  0.89811  0.28570  1.0000
  C   C34       1.0  0.94126  0.87593  0.35050  1.0000
  C   C35       1.0  0.93395  0.89862  0.41524  1.0000
  C   C36       1.0  0.95558  0.94055  0.41590  1.0000
  H   H13       1.0  0.12492  0.07305  0.20377  1.0000
  H   H14       1.0  0.05386  0.03829  0.20603  1.0000
  H   H15       1.0  0.05475  0.01966  0.48613  1.0000
  H   H16       1.0  0.12584  0.05617  0.48610  1.0000
  H   H17       1.0  0.01127  0.06098  0.45879  1.0000
  H   H18       1.0  0.97710  0.09723  0.45342  1.0000
  H   H19       1.0  0.01292  0.95444  0.23493  1.0000
  H   H20       1.0  0.97940  0.88412  0.23864  1.0000
  H   H21       1.0  0.91198  0.88493  0.46246  1.0000
  H   H22       1.0  0.94914  0.95558  0.46363  1.0000
  H   H23       1.0  0.95015  0.99690  0.22685  1.0000
  H   H24       1.0  0.91252  0.02989  0.22590  1.0000
  N   N2        1.0  0.43224  0.21825  0.34743  1.0000
  C   C37       1.0  0.45466  0.26010  0.33298  1.0000
  C   C38       1.0  0.39005  0.19711  0.34627  1.0000
  C   C39       1.0  0.45463  0.19884  0.36271  1.0000
  C   C40       1.0  0.48289  0.21190  0.43329  1.0000
  C   C41       1.0  0.51370  0.20283  0.43251  1.0000
  C   C42       1.0  0.51649  0.17888  0.36369  1.0000
  C   C43       1.0  0.48587  0.16314  0.29763  1.0000
  C   C44       1.0  0.45580  0.17335  0.29634  1.0000
  C   C45       1.0  0.45551  0.28649  0.39959  1.0000
  C   C46       1.0  0.48574  0.32671  0.39969  1.0000
  C   C47       1.0  0.51706  0.34191  0.33520  1.0000
  C   C48       1.0  0.51420  0.31543  0.26543  1.0000
  C   C49       1.0  0.48328  0.27561  0.26322  1.0000
  C   C50       1.0  0.36819  0.18650  0.42770  1.0000
  C   C51       1.0  0.32629  0.16577  0.42646  1.0000
  C   C52       1.0  0.30482  0.15466  0.34388  1.0000
  C   C53       1.0  0.32716  0.16504  0.26256  1.0000
  C   C54       1.0  0.36906  0.18616  0.26366  1.0000
  H   H25       1.0  0.48557  0.34431  0.45093  1.0000
  H   H26       1.0  0.43584  0.27588  0.45236  1.0000
  H   H27       1.0  0.48439  0.25685  0.21618  1.0000
  H   H28       1.0  0.53642  0.32372  0.21882  1.0000
  H   H29       1.0  0.48389  0.23187  0.47988  1.0000
  H   H30       1.0  0.53600  0.21688  0.47894  1.0000
  H   H31       1.0  0.38280  0.19429  0.48841  1.0000
  H   H32       1.0  0.31150  0.15932  0.48695  1.0000
  H   H33       1.0  0.31303  0.15688  0.20129  1.0000
  H   H34       1.0  0.38432  0.19323  0.20379  1.0000
  H   H35       1.0  0.43662  0.16461  0.24265  1.0000
  H   H36       1.0  0.48644  0.14580  0.24617  1.0000
  N   N3        1.0  0.78853  0.21696  0.34389  1.0000
  C   C55       1.0  0.74653  0.19786  0.32969  1.0000
  C   C56       1.0  0.80970  0.19571  0.34222  1.0000
  C   C57       1.0  0.80774  0.25886  0.35992  1.0000
  C   C58       1.0  0.79510  0.27345  0.43267  1.0000
  C   C59       1.0  0.80365  0.31320  0.43403  1.0000
  C   C60       1.0  0.82687  0.34057  0.36542  1.0000
  C   C61       1.0  0.84239  0.32639  0.29729  1.0000
  C   C62       1.0  0.83242  0.28624  0.29358  1.0000
  C   C63       1.0  0.71966  0.17286  0.39637  1.0000
  C   C64       1.0  0.67953  0.16306  0.39511  1.0000
  C   C65       1.0  0.66475  0.17912  0.32953  1.0000
  C   C66       1.0  0.69157  0.20225  0.25979  1.0000
  C   C67       1.0  0.73133  0.21080  0.25881  1.0000
  C   C68       1.0  0.80791  0.17161  0.41560  1.0000
  C   C69       1.0  0.82814  0.14997  0.41303  1.0000
  C   C70       1.0  0.85231  0.15243  0.33839  1.0000
  C   C71       1.0  0.85480  0.17773  0.26633  1.0000
  C   C72       1.0  0.83331  0.19813  0.26724  1.0000
  H   H37       1.0  0.66170  0.14549  0.44632  1.0000
  H   H38       1.0  0.72963  0.16395  0.45046  1.0000
  H   H39       1.0  0.75030  0.23025  0.21139  1.0000
  H   H40       1.0  0.68355  0.21601  0.21212  1.0000
  H   H41       1.0  0.77574  0.25410  0.47963  1.0000
  H   H42       1.0  0.78992  0.32096  0.48236  1.0000
  H   H43       1.0  0.79178  0.16964  0.47196  1.0000
  H   H44       1.0  0.82467  0.13197  0.46690  1.0000
  H   H45       1.0  0.87286  0.18213  0.21204  1.0000
  H   H46       1.0  0.83514  0.21494  0.21231  1.0000
  H   H47       1.0  0.84076  0.27666  0.23786  1.0000
  H   H48       1.0  0.85924  0.34469  0.24579  1.0000
  N   N4        1.0  0.78891  0.57486  0.35458  1.0000
  C   C73       1.0  0.80794  0.55198  0.33937  1.0000
  C   C74       1.0  0.81029  0.61726  0.35338  1.0000
  C   C75       1.0  0.74692  0.55223  0.36934  1.0000
  C   C76       1.0  0.73179  0.52429  0.44069  1.0000
  C   C77       1.0  0.69194  0.49329  0.44043  1.0000
  C   C78       1.0  0.66504  0.49004  0.37155  1.0000
  C   C79       1.0  0.67972  0.52044  0.30504  1.0000
  C   C80       1.0  0.71997  0.55042  0.30289  1.0000
  C   C81       1.0  0.83277  0.54971  0.40591  1.0000
  C   C82       1.0  0.84246  0.51931  0.40375  1.0000
  C   C83       1.0  0.82646  0.48881  0.33734  1.0000
  C   C84       1.0  0.80352  0.49296  0.26781  1.0000
  C   C85       1.0  0.79514  0.52428  0.26764  1.0000
  C   C86       1.0  0.83366  0.63931  0.42786  1.0000
  C   C87       1.0  0.85542  0.68120  0.42585  1.0000
  C   C88       1.0  0.85389  0.70308  0.35051  1.0000
  C   C89       1.0  0.82932  0.68051  0.27727  1.0000
  C   C90       1.0  0.80877  0.63862  0.27774  1.0000
  H   H49       1.0  0.85981  0.51867  0.45501  1.0000
  H   H50       1.0  0.84155  0.56833  0.46050  1.0000
  H   H51       1.0  0.77577  0.52409  0.22044  1.0000
  H   H52       1.0  0.78976  0.47144  0.21961  1.0000
  H   H53       1.0  0.75083  0.52366  0.48765  1.0000
  H   H54       1.0  0.68378  0.47130  0.48764  1.0000
  H   H55       1.0  0.83504  0.62494  0.48447  1.0000
  H   H56       1.0  0.87289  0.69561  0.48052  1.0000
  H   H57       1.0  0.82565  0.69434  0.22232  1.0000
  H   H58       1.0  0.79256  0.62378  0.22202  1.0000
  H   H59       1.0  0.72993  0.56893  0.24819  1.0000
  H   H60       1.0  0.66175  0.51962  0.25343  1.0000
  C   C91       1.0  0.17611  0.09013  0.34412  1.0000
  C   C92       1.0  0.19850  0.07872  0.39949  1.0000
  C   C93       1.0  0.24039  0.09991  0.39911  1.0000
  H   H61       1.0  0.25500  0.08987  0.43931  1.0000
  H   H62       1.0  0.18447  0.05403  0.43967  1.0000
  C   C94       1.0  0.91817  0.08862  0.33848  1.0000
  C   C95       1.0  0.91137  0.10461  0.41835  1.0000
  C   C96       1.0  0.89049  0.12560  0.41738  1.0000
  H   H63       1.0  0.88799  0.13740  0.47725  1.0000
  H   H64       1.0  0.92128  0.10094  0.47965  1.0000
  C   C97       1.0  0.91931  0.83275  0.35010  1.0000
  C   C98       1.0  0.90192  0.81017  0.42957  1.0000
  C   C99       1.0  0.88040  0.76828  0.42883  1.0000
  H   H65       1.0  0.86772  0.75409  0.48830  1.0000
  H   H66       1.0  0.90504  0.82393  0.49041  1.0000
  C   C100      1.0  0.55114  0.17460  0.35598  1.0000
  C   C101      1.0  0.57089  0.17035  0.43250  1.0000
  C   C102      1.0  0.60763  0.17157  0.42305  1.0000
  H   H67       1.0  0.62167  0.17106  0.48112  1.0000
  O   O4        1.0  0.55612  0.16585  0.51798  1.0000
  H   H68       1.0  0.53388  0.13836  0.52212  1.0000
  C   C103      1.0  0.83072  0.37940  0.35956  1.0000
  C   C104      1.0  0.83506  0.40299  0.43692  1.0000
  C   C105      1.0  0.83391  0.43862  0.42894  1.0000
  H   H69       1.0  0.83459  0.45292  0.48755  1.0000
  O   O5        1.0  0.83979  0.39232  0.52178  1.0000
  H   H70       1.0  0.86737  0.39783  0.52540  1.0000
  C   C106      1.0  0.62614  0.45530  0.36378  1.0000
  C   C107      1.0  0.60199  0.43537  0.43999  1.0000
  C   C108      1.0  0.56633  0.39875  0.42996  1.0000
  H   H71       1.0  0.55156  0.38455  0.48770  1.0000
  O   O6        1.0  0.61220  0.44992  0.52563  1.0000
  H   H72       1.0  0.60691  0.47212  0.53015  1.0000
