data_image0
_chemical_formula_structural       CHCNC3H2NCHNCHNC21H13C24H15C2NCNO2C2NCNO2C2NO2
_chemical_formula_sum              "C60 H33 N9 O6"
_cell_length_a       29.7786
_cell_length_b       29.7786
_cell_length_c       14.8212
_cell_angle_alpha    90
_cell_angle_beta     90
_cell_angle_gamma    120

_space_group_name_H-M_alt    "P 1"
_space_group_IT_number       1

loop_
  _space_group_symop_operation_xyz
  'x, y, z'

loop_
  _atom_site_type_symbol
  _atom_site_label
  _atom_site_symmetry_multiplicity
  _atom_site_fract_x
  _atom_site_fract_y
  _atom_site_fract_z
  _atom_site_occupancy
  C   C1        1.0  0.03293  0.50492  0.26857  1.0000
  H   H1        1.0  0.04861  0.50489  0.20738  1.0000
  C   C2        1.0  0.06416  0.53134  0.34383  1.0000
  N   N1        1.0  0.03822  0.52939  0.42063  1.0000
  C   C3        1.0  0.14879  0.54527  0.28580  1.0000
  C   C4        1.0  0.11967  0.55912  0.34337  1.0000
  C   C5        1.0  0.14777  0.60169  0.40229  1.0000
  H   H2        1.0  0.13061  0.51416  0.24343  1.0000
  H   H3        1.0  0.12870  0.61345  0.44508  1.0000
  N   N2        1.0  0.53430  0.50279  0.27631  1.0000
  C   C6        1.0  0.50996  0.53083  0.26846  1.0000
  H   H4        1.0  0.50994  0.54650  0.20725  1.0000
  N   N3        1.0  0.51230  0.03453  0.27630  1.0000
  C   C7        1.0  0.48428  0.98215  0.26841  1.0000
  H   H5        1.0  0.46864  0.96647  0.20718  1.0000
  N   N4        1.0  0.98055  0.48062  0.27642  1.0000
  C   C8        1.0  0.28694  0.64427  0.34515  1.0000
  C   C9        1.0  0.31592  0.61838  0.34523  1.0000
  C   C10       1.0  0.37082  0.64568  0.34521  1.0000
  C   C11       1.0  0.39672  0.70054  0.34517  1.0000
  C   C12       1.0  0.36942  0.72815  0.34511  1.0000
  C   C13       1.0  0.31455  0.69918  0.34509  1.0000
  C   C14       1.0  0.39927  0.61856  0.34489  1.0000
  C   C15       1.0  0.38556  0.57586  0.40289  1.0000
  C   C16       1.0  0.41349  0.54919  0.40253  1.0000
  C   C17       1.0  0.45595  0.56355  0.34340  1.0000
  C   C18       1.0  0.46971  0.60643  0.28565  1.0000
  C   C19       1.0  0.44211  0.63345  0.28660  1.0000
  C   C20       1.0  0.23136  0.61582  0.34482  1.0000
  C   C21       1.0  0.20341  0.57287  0.28674  1.0000
  C   C22       1.0  0.20237  0.62962  0.40262  1.0000
  C   C23       1.0  0.39654  0.78372  0.34476  1.0000
  C   C24       1.0  0.38168  0.81167  0.28641  1.0000
  C   C25       1.0  0.40869  0.86629  0.28549  1.0000
  C   C26       1.0  0.45155  0.89540  0.34329  1.0000
  C   C27       1.0  0.46588  0.86731  0.40247  1.0000
  C   C28       1.0  0.43923  0.81271  0.40279  1.0000
  H   H6        1.0  0.22265  0.56174  0.24312  1.0000
  H   H7        1.0  0.22081  0.65982  0.44687  1.0000
  H   H8        1.0  0.35137  0.79242  0.24267  1.0000
  H   H9        1.0  0.39586  0.88447  0.24293  1.0000
  H   H10       1.0  0.45086  0.79426  0.44724  1.0000
  H   H11       1.0  0.49662  0.88637  0.44546  1.0000
  H   H12       1.0  0.45316  0.66375  0.24283  1.0000
  H   H13       1.0  0.50072  0.61927  0.24309  1.0000
  H   H14       1.0  0.40180  0.51843  0.44548  1.0000
  H   H15       1.0  0.35545  0.56419  0.44728  1.0000
  H   H16       1.0  0.29656  0.57867  0.34517  1.0000
  H   H17       1.0  0.29420  0.71854  0.34493  1.0000
  H   H18       1.0  0.43643  0.72090  0.34507  1.0000
  C   C29       1.0  0.73136  0.36761  0.34232  1.0000
  C   C30       1.0  0.70238  0.39355  0.34215  1.0000
  C   C31       1.0  0.64745  0.36674  0.34229  1.0000
  C   C32       1.0  0.62150  0.31183  0.34218  1.0000
  C   C33       1.0  0.64831  0.28370  0.34234  1.0000
  C   C34       1.0  0.70323  0.31268  0.34225  1.0000
  C   C35       1.0  0.61918  0.39432  0.34425  1.0000
  C   C36       1.0  0.63610  0.44093  0.29518  1.0000
  C   C37       1.0  0.60887  0.46831  0.29854  1.0000
  C   C38       1.0  0.56333  0.45040  0.35106  1.0000
  C   C39       1.0  0.54558  0.40308  0.39800  1.0000
  C   C40       1.0  0.57313  0.37607  0.39556  1.0000
  C   C41       1.0  0.78720  0.39587  0.34430  1.0000
  C   C42       1.0  0.81500  0.44199  0.39545  1.0000
  C   C43       1.0  0.86957  0.46954  0.39792  1.0000
  C   C44       1.0  0.89913  0.45173  0.35112  1.0000
  C   C45       1.0  0.87150  0.40613  0.29875  1.0000
  C   C46       1.0  0.81690  0.37890  0.29539  1.0000
  C   C47       1.0  0.62073  0.22786  0.34433  1.0000
  C   C48       1.0  0.63897  0.20007  0.39568  1.0000
  C   C49       1.0  0.61195  0.14550  0.39811  1.0000
  C   C50       1.0  0.56464  0.11594  0.35114  1.0000
  C   C51       1.0  0.54676  0.14357  0.29855  1.0000
  C   C52       1.0  0.57413  0.19817  0.29522  1.0000
  H   H19       1.0  0.88737  0.50351  0.43322  1.0000
  H   H20       1.0  0.79578  0.45592  0.43285  1.0000
  H   H21       1.0  0.89094  0.39179  0.26289  1.0000
  H   H22       1.0  0.79905  0.34665  0.25542  1.0000
  H   H23       1.0  0.67207  0.21930  0.43320  1.0000
  H   H24       1.0  0.62805  0.12770  0.43362  1.0000
  H   H25       1.0  0.55979  0.21602  0.25512  1.0000
  H   H26       1.0  0.51304  0.12413  0.26257  1.0000
  H   H27       1.0  0.55925  0.34295  0.43306  1.0000
  H   H28       1.0  0.51166  0.38696  0.43348  1.0000
  H   H29       1.0  0.62316  0.50204  0.26259  1.0000
  H   H30       1.0  0.66831  0.45530  0.25512  1.0000
  H   H31       1.0  0.72188  0.43320  0.34252  1.0000
  H   H32       1.0  0.72337  0.29317  0.34270  1.0000
  H   H33       1.0  0.58185  0.29168  0.34258  1.0000
  C   C53       1.0  0.53597  0.47856  0.35318  1.0000
  C   C54       1.0  0.48371  0.53580  0.34383  1.0000
  N   N5        1.0  0.48580  0.51195  0.42070  1.0000
  C   C55       1.0  0.51037  0.48394  0.42978  1.0000
  N   N6        1.0  0.51148  0.46352  0.51503  1.0000
  O   O1        1.0  0.46613  0.43299  0.54178  1.0000
  O   O2        1.0  0.53313  0.49925  0.57211  1.0000
  C   C56       1.0  0.53649  0.06041  0.35321  1.0000
  C   C57       1.0  0.47928  0.95092  0.34376  1.0000
  N   N7        1.0  0.50310  0.97685  0.42067  1.0000
  C   C58       1.0  0.53110  0.02942  0.42978  1.0000
  N   N8        1.0  0.55146  0.05092  0.51509  1.0000
  O   O3        1.0  0.58198  0.03611  0.54189  1.0000
  O   O4        1.0  0.51569  0.03682  0.57209  1.0000
  C   C59       1.0  0.95466  0.47909  0.35322  1.0000
  C   C60       1.0  0.98565  0.50485  0.42971  1.0000
  N   N9        1.0  0.96415  0.50389  0.51493  1.0000
  O   O5        1.0  0.97896  0.54928  0.54140  1.0000
  O   O6        1.0  0.97824  0.48235  0.57220  1.0000
