data_image0
_chemical_formula_structural       C13H9C13H9C13H9C13H9C4HCH3C4HCH3C4HCH3N6C17H12C17H12C17H12C17H12N6C4HCH3C4HCH3C4HCH3
_chemical_formula_sum              "C150 H108 N12"
_cell_length_a       56.9256
_cell_length_b       56.9089
_cell_length_c       14.9812
_cell_angle_alpha    90
_cell_angle_beta     90
_cell_angle_gamma    120.005

_space_group_name_H-M_alt    "P 1"
_space_group_IT_number       1

loop_
  _space_group_symop_operation_xyz
  'x, y, z'

loop_
  _atom_site_type_symbol
  _atom_site_label
  _atom_site_symmetry_multiplicity
  _atom_site_fract_x
  _atom_site_fract_y
  _atom_site_fract_z
  _atom_site_occupancy
  C   C1        1.0  0.90951  0.83720  0.32412  1.0000
  C   C2        1.0  0.93451  0.89477  0.33657  1.0000
  C   C3        1.0  0.90594  0.87823  0.33681  1.0000
  C   C4        1.0  0.89358  0.84978  0.33166  1.0000
  C   C5        1.0  0.94635  0.92285  0.33667  1.0000
  C   C6        1.0  0.06591  0.02402  0.33746  1.0000
  C   C7        1.0  0.11054  0.02826  0.33806  1.0000
  C   C8        1.0  0.15154  0.07287  0.32495  1.0000
  C   C9        1.0  0.13898  0.04437  0.33294  1.0000
  C   C10       1.0  0.96473  0.04244  0.33700  1.0000
  C   C11       1.0  0.91984  0.03814  0.32926  1.0000
  C   C12       1.0  0.91562  0.07892  0.32383  1.0000
  C   C13       1.0  0.90368  0.05037  0.32360  1.0000
  H   H1        1.0  0.87285  0.83838  0.33076  1.0000
  H   H2        1.0  0.89383  0.88679  0.34011  1.0000
  H   H3        1.0  0.91058  0.01742  0.32653  1.0000
  H   H4        1.0  0.10201  0.00760  0.34160  1.0000
  H   H5        1.0  0.15040  0.03505  0.33215  1.0000
  H   H6        1.0  0.88308  0.03821  0.31886  1.0000
  H   H7        1.0  0.05787  0.00889  0.29346  1.0000
  H   H8        1.0  0.93934  0.93093  0.29257  1.0000
  H   H9        1.0  0.97992  0.04959  0.29323  1.0000
  C   C14       1.0  0.52318  0.36641  0.32016  1.0000
  C   C15       1.0  0.48064  0.31078  0.31451  1.0000
  C   C16       1.0  0.50532  0.31941  0.26869  1.0000
  C   C17       1.0  0.52613  0.34669  0.27140  1.0000
  C   C18       1.0  0.46144  0.28327  0.31557  1.0000
  C   C19       1.0  0.35200  0.17931  0.33073  1.0000
  C   C20       1.0  0.30917  0.17582  0.29063  1.0000
  C   C21       1.0  0.26569  0.13459  0.32212  1.0000
  C   C22       1.0  0.28067  0.16110  0.28628  1.0000
  C   C23       1.0  0.45846  0.17248  0.34795  1.0000
  C   C24       1.0  0.50636  0.18777  0.33546  1.0000
  C   C25       1.0  0.52277  0.15535  0.34101  1.0000
  C   C26       1.0  0.52777  0.18222  0.33292  1.0000
  H   H10       1.0  0.54401  0.35167  0.24014  1.0000
  H   H11       1.0  0.50880  0.30572  0.23533  1.0000
  H   H12       1.0  0.51076  0.20750  0.32961  1.0000
  H   H13       1.0  0.31918  0.19492  0.26364  1.0000
  H   H14       1.0  0.27098  0.17023  0.25745  1.0000
  H   H15       1.0  0.54717  0.19814  0.32628  1.0000
  H   H16       1.0  0.36096  0.18989  0.27577  1.0000
  H   H17       1.0  0.45837  0.27300  0.25876  1.0000
  H   H18       1.0  0.44618  0.16700  0.29530  1.0000
  C   C27       1.0  0.62222  0.15721  0.32033  1.0000
  C   C28       1.0  0.67786  0.17040  0.31483  1.0000
  C   C29       1.0  0.66919  0.18640  0.26890  1.0000
  C   C30       1.0  0.64192  0.17990  0.27159  1.0000
  C   C31       1.0  0.70537  0.17877  0.31598  1.0000
  C   C32       1.0  0.80922  0.17300  0.33055  1.0000
  C   C33       1.0  0.81270  0.13367  0.28978  1.0000
  C   C34       1.0  0.85382  0.13127  0.32156  1.0000
  C   C35       1.0  0.82737  0.11985  0.28534  1.0000
  C   C36       1.0  0.81629  0.28637  0.34823  1.0000
  C   C37       1.0  0.80095  0.31895  0.33537  1.0000
  C   C38       1.0  0.83329  0.36780  0.34130  1.0000
  C   C39       1.0  0.80645  0.34590  0.33284  1.0000
  H   H19       1.0  0.63691  0.19279  0.24031  1.0000
  H   H20       1.0  0.68287  0.20360  0.23562  1.0000
  H   H21       1.0  0.78124  0.30360  0.32926  1.0000
  H   H22       1.0  0.79365  0.12467  0.26251  1.0000
  H   H23       1.0  0.81827  0.10109  0.25611  1.0000
  H   H24       1.0  0.79053  0.34936  0.32594  1.0000
  H   H25       1.0  0.79868  0.17145  0.27556  1.0000
  H   H26       1.0  0.71567  0.18599  0.25924  1.0000
  H   H27       1.0  0.82160  0.27954  0.29527  1.0000
  C   C40       1.0  0.83143  0.46541  0.31988  1.0000
  C   C41       1.0  0.81813  0.50781  0.31428  1.0000
  C   C42       1.0  0.80218  0.48311  0.26838  1.0000
  C   C43       1.0  0.80874  0.46238  0.27107  1.0000
  C   C44       1.0  0.80966  0.52688  0.31550  1.0000
  C   C45       1.0  0.81559  0.63670  0.33099  1.0000
  C   C46       1.0  0.85492  0.67956  0.29076  1.0000
  C   C47       1.0  0.85713  0.72304  0.32196  1.0000
  C   C48       1.0  0.86867  0.70805  0.28625  1.0000
  C   C49       1.0  0.70225  0.53023  0.34787  1.0000
  C   C50       1.0  0.66966  0.48232  0.33544  1.0000
  C   C51       1.0  0.62083  0.46584  0.34107  1.0000
  C   C52       1.0  0.64272  0.46087  0.33294  1.0000
  H   H28       1.0  0.79587  0.44446  0.23987  1.0000
  H   H29       1.0  0.78497  0.47954  0.23513  1.0000
  H   H30       1.0  0.68500  0.47794  0.32959  1.0000
  H   H31       1.0  0.86401  0.66955  0.26386  1.0000
  H   H32       1.0  0.88748  0.71776  0.25739  1.0000
  H   H33       1.0  0.63925  0.44148  0.32634  1.0000
  H   H34       1.0  0.81719  0.62774  0.27600  1.0000
  H   H35       1.0  0.80225  0.52977  0.25886  1.0000
  H   H36       1.0  0.70906  0.54246  0.29508  1.0000
  C   C53       1.0  0.23682  0.11946  0.31660  1.0000
  C   C54       1.0  0.22216  0.12048  0.24196  1.0000
  C   C55       1.0  0.19350  0.10514  0.24018  1.0000
  C   C56       1.0  0.18008  0.08899  0.31615  1.0000
  H   H37       1.0  0.23243  0.13187  0.18757  1.0000
  C   C57       1.0  0.17859  0.10525  0.15874  1.0000
  H   H38       1.0  0.19222  0.11692  0.10431  1.0000
  H   H39       1.0  0.16598  0.11419  0.17360  1.0000
  H   H40       1.0  0.16569  0.08452  0.13507  1.0000
  C   C58       1.0  0.86893  0.11752  0.31593  1.0000
  C   C59       1.0  0.86802  0.10198  0.24101  1.0000
  C   C60       1.0  0.88337  0.08866  0.23909  1.0000
  C   C61       1.0  0.89943  0.09127  0.31518  1.0000
  H   H41       1.0  0.85668  0.10092  0.18657  1.0000
  C   C62       1.0  0.88337  0.07380  0.15738  1.0000
  H   H42       1.0  0.87181  0.07590  0.10287  1.0000
  H   H43       1.0  0.87439  0.05222  0.17174  1.0000
  H   H44       1.0  0.90414  0.08165  0.13403  1.0000
  C   C63       1.0  0.87082  0.75190  0.31624  1.0000
  C   C64       1.0  0.88648  0.76653  0.24152  1.0000
  C   C65       1.0  0.89980  0.79521  0.23958  1.0000
  C   C66       1.0  0.89707  0.80865  0.31546  1.0000
  H   H45       1.0  0.88761  0.75624  0.18720  1.0000
  C   C67       1.0  0.91482  0.81009  0.15812  1.0000
  H   H46       1.0  0.91289  0.79644  0.10379  1.0000
  H   H47       1.0  0.93636  0.82274  0.17300  1.0000
  H   H48       1.0  0.90697  0.82296  0.13429  1.0000
  N   N1        1.0  0.56205  0.16111  0.26810  1.0000
  N   N2        1.0  0.58526  0.16184  0.26286  1.0000
  N   N3        1.0  0.82756  0.40132  0.26809  1.0000
  N   N4        1.0  0.82686  0.42382  0.26265  1.0000
  N   N5        1.0  0.58731  0.42655  0.26807  1.0000
  N   N6        1.0  0.56481  0.40335  0.26277  1.0000
  C   C68       1.0  0.93806  0.85366  0.32531  1.0000
  C   C69       1.0  0.95041  0.88208  0.33080  1.0000
  C   C70       1.0  0.96644  0.93939  0.39229  1.0000
  C   C71       1.0  0.97898  0.96756  0.39023  1.0000
  C   C72       1.0  0.96384  0.98111  0.39082  1.0000
  C   C73       1.0  0.97677  0.00975  0.39029  1.0000
  C   C74       1.0  0.00546  0.02491  0.39108  1.0000
  C   C75       1.0  0.02117  0.01196  0.39052  1.0000
  C   C76       1.0  0.00762  0.98327  0.39106  1.0000
  C   C77       1.0  0.04933  0.02760  0.39276  1.0000
  C   C78       1.0  0.09399  0.04028  0.33751  1.0000
  C   C79       1.0  0.10666  0.06887  0.33135  1.0000
  C   C80       1.0  0.13506  0.08495  0.32583  1.0000
  C   C81       1.0  0.96112  0.02227  0.39232  1.0000
  C   C82       1.0  0.94838  0.05415  0.33671  1.0000
  C   C83       1.0  0.96028  0.08271  0.33836  1.0000
  C   C84       1.0  0.94407  0.09494  0.33305  1.0000
  H   H49       1.0  0.95013  0.84510  0.32162  1.0000
  H   H50       1.0  0.97114  0.89343  0.32905  1.0000
  H   H51       1.0  0.01880  0.97367  0.39242  1.0000
  H   H52       1.0  0.94306  0.96991  0.39200  1.0000
  H   H53       1.0  0.01506  0.04569  0.39244  1.0000
  H   H54       1.0  0.14360  0.10558  0.32185  1.0000
  H   H55       1.0  0.09530  0.07824  0.32935  1.0000
  H   H56       1.0  0.95330  0.11568  0.33322  1.0000
  H   H57       1.0  0.98090  0.09490  0.34290  1.0000
  H   H58       1.0  0.05743  0.04291  0.43615  1.0000
  H   H59       1.0  0.97357  0.93125  0.43579  1.0000
  H   H60       1.0  0.94574  0.01500  0.43538  1.0000
  C   C85       1.0  0.49801  0.35777  0.36344  1.0000
  C   C86       1.0  0.47707  0.33045  0.36056  1.0000
  C   C87       1.0  0.45065  0.26926  0.39128  1.0000
  C   C88       1.0  0.43743  0.24122  0.39341  1.0000
  C   C89       1.0  0.45297  0.22823  0.39995  1.0000
  C   C90       1.0  0.44040  0.19967  0.40465  1.0000
  C   C91       1.0  0.41177  0.18403  0.40410  1.0000
  C   C92       1.0  0.39585  0.19669  0.39788  1.0000
  C   C93       1.0  0.40887  0.22534  0.39311  1.0000
  C   C94       1.0  0.36781  0.18113  0.40017  1.0000
  C   C95       1.0  0.32376  0.16459  0.33119  1.0000
  C   C96       1.0  0.30886  0.13813  0.36745  1.0000
  C   C97       1.0  0.28031  0.12354  0.36387  1.0000
  C   C98       1.0  0.45673  0.18812  0.41194  1.0000
  C   C99       1.0  0.47929  0.16655  0.34640  1.0000
  C   C100      1.0  0.47408  0.13958  0.35215  1.0000
  C   C101      1.0  0.49562  0.13406  0.34983  1.0000
  H   H61       1.0  0.49462  0.37128  0.39802  1.0000
  H   H62       1.0  0.45936  0.32495  0.39393  1.0000
  H   H63       1.0  0.39749  0.23472  0.39008  1.0000
  H   H64       1.0  0.47376  0.23976  0.40107  1.0000
  H   H65       1.0  0.40251  0.16330  0.40872  1.0000
  H   H66       1.0  0.27033  0.10430  0.38965  1.0000
  H   H67       1.0  0.31867  0.12904  0.39564  1.0000
  H   H68       1.0  0.49129  0.11434  0.35335  1.0000
  H   H69       1.0  0.45462  0.12380  0.35863  1.0000
  H   H70       1.0  0.35940  0.17102  0.45619  1.0000
  H   H71       1.0  0.45544  0.27883  0.44976  1.0000
  H   H72       1.0  0.47027  0.19483  0.46134  1.0000
  C   C102      1.0  0.63089  0.14071  0.36367  1.0000
  C   C103      1.0  0.65821  0.14713  0.36091  1.0000
  C   C104      1.0  0.71937  0.18183  0.39160  1.0000
  C   C105      1.0  0.74741  0.19662  0.39374  1.0000
  C   C106      1.0  0.76045  0.22516  0.40029  1.0000
  C   C107      1.0  0.78900  0.24110  0.40488  1.0000
  C   C108      1.0  0.80460  0.22807  0.40421  1.0000
  C   C109      1.0  0.79189  0.19947  0.39799  1.0000
  C   C110      1.0  0.76324  0.18387  0.39329  1.0000
  C   C111      1.0  0.80740  0.18693  0.40015  1.0000
  C   C112      1.0  0.82391  0.15943  0.33083  1.0000
  C   C113      1.0  0.85030  0.17088  0.36749  1.0000
  C   C114      1.0  0.86486  0.15689  0.36375  1.0000
  C   C115      1.0  0.80059  0.26899  0.41210  1.0000
  C   C116      1.0  0.82217  0.31313  0.34667  1.0000
  C   C117      1.0  0.84911  0.33492  0.35279  1.0000
  C   C118      1.0  0.85459  0.36197  0.35046  1.0000
  H   H73       1.0  0.61739  0.12380  0.39824  1.0000
  H   H74       1.0  0.66373  0.13494  0.39427  1.0000
  H   H75       1.0  0.75383  0.16312  0.39025  1.0000
  H   H76       1.0  0.74895  0.23445  0.40147  1.0000
  H   H77       1.0  0.82532  0.23949  0.40872  1.0000
  H   H78       1.0  0.88404  0.16606  0.38987  1.0000
  H   H79       1.0  0.85938  0.18975  0.39605  1.0000
  H   H80       1.0  0.87429  0.37738  0.35418  1.0000
  H   H81       1.0  0.86490  0.33126  0.35950  1.0000
  H   H82       1.0  0.81746  0.18855  0.45620  1.0000
  H   H83       1.0  0.70981  0.17696  0.45007  1.0000
  H   H84       1.0  0.79402  0.27589  0.46172  1.0000
  C   C119      1.0  0.84788  0.49059  0.36322  1.0000
  C   C120      1.0  0.84141  0.51147  0.36036  1.0000
  C   C121      1.0  0.80673  0.53795  0.39100  1.0000
  C   C122      1.0  0.79196  0.55122  0.39337  1.0000
  C   C123      1.0  0.76343  0.53571  0.39986  1.0000
  C   C124      1.0  0.74748  0.54832  0.40470  1.0000
  C   C125      1.0  0.76051  0.57695  0.40431  1.0000
  C   C126      1.0  0.78910  0.59285  0.39814  1.0000
  C   C127      1.0  0.80470  0.57980  0.39326  1.0000
  C   C128      1.0  0.80161  0.62090  0.40045  1.0000
  C   C129      1.0  0.82910  0.66496  0.33136  1.0000
  C   C130      1.0  0.81752  0.67984  0.36749  1.0000
  C   C131      1.0  0.83146  0.70840  0.36378  1.0000
  C   C132      1.0  0.71961  0.53200  0.41191  1.0000
  C   C133      1.0  0.67549  0.50938  0.34635  1.0000
  C   C134      1.0  0.65372  0.51456  0.35211  1.0000
  C   C135      1.0  0.62667  0.49298  0.34983  1.0000
  H   H85       1.0  0.86478  0.49404  0.39789  1.0000
  H   H86       1.0  0.85355  0.52919  0.39381  1.0000
  H   H87       1.0  0.82545  0.59115  0.39023  1.0000
  H   H88       1.0  0.75414  0.51491  0.40084  1.0000
  H   H89       1.0  0.74909  0.58624  0.40898  1.0000
  H   H90       1.0  0.82218  0.71837  0.38942  1.0000
  H   H91       1.0  0.79862  0.67002  0.39569  1.0000
  H   H92       1.0  0.61127  0.49729  0.35331  1.0000
  H   H93       1.0  0.65738  0.53402  0.35853  1.0000
  H   H94       1.0  0.79993  0.62933  0.45646  1.0000
  H   H95       1.0  0.81194  0.53356  0.44941  1.0000
  H   H96       1.0  0.71275  0.51852  0.46151  1.0000
  N   N7        1.0  0.19557  0.08856  0.38449  1.0000
  N   N8        1.0  0.22206  0.10278  0.38463  1.0000
  N   N9        1.0  0.89975  0.10706  0.38378  1.0000
  N   N10       1.0  0.88552  0.11933  0.38407  1.0000
  N   N11       1.0  0.88117  0.79319  0.38389  1.0000
  N   N12       1.0  0.86891  0.76669  0.38418  1.0000
  C   C136      1.0  0.59514  0.15248  0.32782  1.0000
  C   C137      1.0  0.57851  0.14113  0.40398  1.0000
  C   C138      1.0  0.55326  0.14025  0.41129  1.0000
  C   C139      1.0  0.54505  0.15071  0.33907  1.0000
  H   H97       1.0  0.58555  0.13507  0.45688  1.0000
  C   C140      1.0  0.53730  0.13046  0.49525  1.0000
  H   H98       1.0  0.54749  0.12494  0.54589  1.0000
  H   H99       1.0  0.51771  0.11253  0.48167  1.0000
  H   H100      1.0  0.53401  0.14629  0.52329  1.0000
  C   C141      1.0  0.83619  0.44308  0.32753  1.0000
  C   C142      1.0  0.84744  0.43779  0.40392  1.0000
  C   C143      1.0  0.84832  0.41341  0.41144  1.0000
  C   C144      1.0  0.83788  0.39471  0.33927  1.0000
  H   H101      1.0  0.85349  0.45091  0.45676  1.0000
  C   C145      1.0  0.85804  0.40725  0.49555  1.0000
  H   H102      1.0  0.86351  0.42296  0.54614  1.0000
  H   H103      1.0  0.87599  0.40561  0.48220  1.0000
  H   H104      1.0  0.84221  0.38813  0.52354  1.0000
  C   C146      1.0  0.54556  0.39348  0.32770  1.0000
  C   C147      1.0  0.55083  0.41011  0.40385  1.0000
  C   C148      1.0  0.57523  0.43534  0.41129  1.0000
  C   C149      1.0  0.59393  0.44352  0.33915  1.0000
  H   H105      1.0  0.53775  0.40307  0.45678  1.0000
  C   C150      1.0  0.58141  0.45130  0.49527  1.0000
  H   H106      1.0  0.56569  0.44112  0.54586  1.0000
  H   H107      1.0  0.58311  0.47091  0.48171  1.0000
  H   H108      1.0  0.60051  0.45455  0.52335  1.0000
