data_image0
_chemical_formula_structural       C7H2C2O2C3O2H2NHC3O2H2NHC5HC4H3C2O2C3OHOHNHC3OHOHNHC7H2C2O2C3O2H2NHC3O2H2NHC5HC4H3C2O2C3OHOHNHC3OHOHNHC7H2C2O2C3O2H2NHC3O2H2NHC5HC4H3C2O2C3OHOHNHC3OHOHNHC7H2C2O2C3O2H2NHC3O2H2NHC5HC4H3C2O2C3OHOHNHC3OHOHNH
_chemical_formula_sum              "C128 H72 O48 N16"
_cell_length_a       30.8226
_cell_length_b       30.8226
_cell_length_c       15.0568
_cell_angle_alpha    90
_cell_angle_beta     90
_cell_angle_gamma    90

_space_group_name_H-M_alt    "P 1"
_space_group_IT_number       1

loop_
  _space_group_symop_operation_xyz
  'x, y, z'

loop_
  _atom_site_type_symbol
  _atom_site_label
  _atom_site_symmetry_multiplicity
  _atom_site_fract_x
  _atom_site_fract_y
  _atom_site_fract_z
  _atom_site_occupancy
  C   C1        1.0  0.05751  0.00474  0.35905  1.0000
  C   C2        1.0  0.09015  0.03743  0.35954  1.0000
  C   C3        1.0  0.07902  0.07929  0.32976  1.0000
  C   C4        1.0  0.48172  0.48169  0.32951  1.0000
  C   C5        1.0  0.40615  0.45890  0.29944  1.0000
  C   C6        1.0  0.43879  0.49158  0.29992  1.0000
  C   C7        1.0  0.43070  0.03343  0.26542  1.0000
  H   H1        1.0  0.09489  0.45515  0.42123  1.0000
  H   H2        1.0  0.40142  0.04117  0.23773  1.0000
  C   C8        1.0  0.13426  0.03042  0.38223  1.0000
  C   C9        1.0  0.36207  0.46595  0.27638  1.0000
  O   O1        1.0  0.15658  0.06466  0.41628  1.0000
  O   O2        1.0  0.34015  0.43161  0.24171  1.0000
  C   C10       1.0  0.99908  0.29447  0.33659  1.0000
  C   C11       1.0  0.00422  0.22794  0.24655  1.0000
  C   C12       1.0  0.00600  0.27360  0.25382  1.0000
  O   O3        1.0  0.00330  0.20938  0.16414  1.0000
  O   O4        1.0  0.00901  0.29727  0.17758  1.0000
  H   H3        1.0  0.53080  0.21633  0.13412  1.0000
  H   H4        1.0  0.04018  0.30183  0.16715  1.0000
  N   N1        1.0  0.99759  0.33880  0.33955  1.0000
  H   H5        1.0  0.01321  0.35422  0.29279  1.0000
  C   C13       1.0  0.20178  0.99722  0.33643  1.0000
  C   C14       1.0  0.26832  0.99136  0.24659  1.0000
  C   C15       1.0  0.22266  0.98984  0.25383  1.0000
  O   O5        1.0  0.28686  0.99201  0.16415  1.0000
  O   O6        1.0  0.19902  0.98673  0.17755  1.0000
  H   H6        1.0  0.27977  0.46449  0.13438  1.0000
  H   H7        1.0  0.19424  0.95556  0.16759  1.0000
  N   N2        1.0  0.15746  0.99900  0.33922  1.0000
  H   H8        1.0  0.14196  0.98333  0.29261  1.0000
  C   C16       1.0  0.01457  0.01464  0.32957  1.0000
  C   C17       1.0  0.03714  0.09032  0.29991  1.0000
  C   C18       1.0  0.00456  0.05757  0.30016  1.0000
  C   C19       1.0  0.06561  0.46289  0.39356  1.0000
  C   C20       1.0  0.46271  0.06555  0.26552  1.0000
  H   H9        1.0  0.10249  0.10284  0.32982  1.0000
  C   C21       1.0  0.49172  0.43878  0.35902  1.0000
  C   C22       1.0  0.45909  0.40607  0.35958  1.0000
  C   C23       1.0  0.41724  0.41708  0.32959  1.0000
  C   C24       1.0  0.03359  0.43078  0.39351  1.0000
  H   H10       1.0  0.39373  0.39356  0.32967  1.0000
  H   H11       1.0  0.04139  0.40153  0.42125  1.0000
  H   H12       1.0  0.45490  0.09481  0.23785  1.0000
  C   C25       1.0  0.03007  0.13441  0.27702  1.0000
  C   C26       1.0  0.46616  0.36200  0.38253  1.0000
  O   O7        1.0  0.06428  0.15666  0.24269  1.0000
  O   O8        1.0  0.43195  0.33974  0.41686  1.0000
  C   C27       1.0  0.99186  0.26831  0.41270  1.0000
  C   C28       1.0  0.99009  0.22267  0.40543  1.0000
  C   C29       1.0  0.99703  0.20179  0.32267  1.0000
  O   O9        1.0  0.98706  0.19899  0.48166  1.0000
  H   H13       1.0  0.95589  0.19442  0.49203  1.0000
  O   O10       1.0  0.99279  0.28690  0.49510  1.0000
  H   H14       1.0  0.96533  0.27991  0.52519  1.0000
  N   N3        1.0  0.99839  0.15747  0.31966  1.0000
  H   H15       1.0  0.98294  0.14194  0.36649  1.0000
  C   C30       1.0  0.22794  0.00458  0.41245  1.0000
  C   C31       1.0  0.27360  0.00607  0.40525  1.0000
  C   C32       1.0  0.29449  0.99875  0.32263  1.0000
  O   O11       1.0  0.29724  0.00923  0.48150  1.0000
  H   H16       1.0  0.30194  0.04041  0.49149  1.0000
  O   O12       1.0  0.20936  0.00401  0.49487  1.0000
  H   H17       1.0  0.21646  0.03154  0.52457  1.0000
  N   N4        1.0  0.33881  0.99715  0.31982  1.0000
  H   H18       1.0  0.35428  0.01278  0.36654  1.0000
  C   C33       1.0  0.05751  0.50474  0.35905  1.0000
  C   C34       1.0  0.09015  0.53743  0.35954  1.0000
  C   C35       1.0  0.07902  0.57929  0.32976  1.0000
  C   C36       1.0  0.48172  0.98169  0.32951  1.0000
  C   C37       1.0  0.40615  0.95890  0.29944  1.0000
  C   C38       1.0  0.43879  0.99158  0.29992  1.0000
  C   C39       1.0  0.43070  0.53343  0.26542  1.0000
  H   H19       1.0  0.09489  0.95515  0.42123  1.0000
  H   H20       1.0  0.40142  0.54117  0.23773  1.0000
  C   C40       1.0  0.13426  0.53042  0.38223  1.0000
  C   C41       1.0  0.36207  0.96595  0.27638  1.0000
  O   O13       1.0  0.15658  0.56466  0.41628  1.0000
  O   O14       1.0  0.34015  0.93161  0.24171  1.0000
  C   C42       1.0  0.99908  0.79447  0.33659  1.0000
  C   C43       1.0  0.00422  0.72795  0.24655  1.0000
  C   C44       1.0  0.00600  0.77360  0.25382  1.0000
  O   O15       1.0  0.00330  0.70938  0.16414  1.0000
  O   O16       1.0  0.00901  0.79727  0.17758  1.0000
  H   H21       1.0  0.53080  0.71633  0.13412  1.0000
  H   H22       1.0  0.04018  0.80183  0.16715  1.0000
  N   N5        1.0  0.99759  0.83880  0.33955  1.0000
  H   H23       1.0  0.01321  0.85422  0.29279  1.0000
  C   C45       1.0  0.20178  0.49722  0.33643  1.0000
  C   C46       1.0  0.26832  0.49136  0.24659  1.0000
  C   C47       1.0  0.22266  0.48984  0.25383  1.0000
  O   O17       1.0  0.28686  0.49201  0.16415  1.0000
  O   O18       1.0  0.19902  0.48673  0.17755  1.0000
  H   H24       1.0  0.27977  0.96450  0.13438  1.0000
  H   H25       1.0  0.19424  0.45556  0.16759  1.0000
  N   N6        1.0  0.15746  0.49900  0.33922  1.0000
  H   H26       1.0  0.14196  0.48333  0.29261  1.0000
  C   C48       1.0  0.01457  0.51465  0.32957  1.0000
  C   C49       1.0  0.03714  0.59032  0.29991  1.0000
  C   C50       1.0  0.00456  0.55757  0.30016  1.0000
  C   C51       1.0  0.06561  0.96289  0.39356  1.0000
  C   C52       1.0  0.46271  0.56555  0.26552  1.0000
  H   H27       1.0  0.10249  0.60284  0.32982  1.0000
  C   C53       1.0  0.49172  0.93878  0.35902  1.0000
  C   C54       1.0  0.45909  0.90607  0.35958  1.0000
  C   C55       1.0  0.41724  0.91708  0.32959  1.0000
  C   C56       1.0  0.03359  0.93078  0.39351  1.0000
  H   H28       1.0  0.39373  0.89356  0.32967  1.0000
  H   H29       1.0  0.04139  0.90153  0.42125  1.0000
  H   H30       1.0  0.45490  0.59481  0.23785  1.0000
  C   C57       1.0  0.03007  0.63441  0.27702  1.0000
  C   C58       1.0  0.46616  0.86200  0.38253  1.0000
  O   O19       1.0  0.06428  0.65666  0.24269  1.0000
  O   O20       1.0  0.43195  0.83974  0.41686  1.0000
  C   C59       1.0  0.99186  0.76832  0.41270  1.0000
  C   C60       1.0  0.99009  0.72267  0.40543  1.0000
  C   C61       1.0  0.99703  0.70179  0.32267  1.0000
  O   O21       1.0  0.98706  0.69899  0.48166  1.0000
  H   H31       1.0  0.95589  0.69442  0.49203  1.0000
  O   O22       1.0  0.99279  0.78690  0.49510  1.0000
  H   H32       1.0  0.96533  0.77991  0.52519  1.0000
  N   N7        1.0  0.99839  0.65747  0.31966  1.0000
  H   H33       1.0  0.98294  0.64194  0.36649  1.0000
  C   C62       1.0  0.22794  0.50458  0.41245  1.0000
  C   C63       1.0  0.27360  0.50607  0.40525  1.0000
  C   C64       1.0  0.29449  0.49875  0.32263  1.0000
  O   O23       1.0  0.29724  0.50923  0.48150  1.0000
  H   H34       1.0  0.30194  0.54041  0.49149  1.0000
  O   O24       1.0  0.20936  0.50401  0.49487  1.0000
  H   H35       1.0  0.21646  0.53154  0.52457  1.0000
  N   N8        1.0  0.33881  0.49715  0.31982  1.0000
  H   H36       1.0  0.35428  0.51278  0.36654  1.0000
  C   C65       1.0  0.55751  0.00474  0.35905  1.0000
  C   C66       1.0  0.59015  0.03743  0.35954  1.0000
  C   C67       1.0  0.57902  0.07929  0.32976  1.0000
  C   C68       1.0  0.98172  0.48169  0.32951  1.0000
  C   C69       1.0  0.90615  0.45890  0.29944  1.0000
  C   C70       1.0  0.93879  0.49158  0.29992  1.0000
  C   C71       1.0  0.93070  0.03343  0.26542  1.0000
  H   H37       1.0  0.59489  0.45515  0.42123  1.0000
  H   H38       1.0  0.90142  0.04117  0.23773  1.0000
  C   C72       1.0  0.63426  0.03042  0.38223  1.0000
  C   C73       1.0  0.86207  0.46595  0.27638  1.0000
  O   O25       1.0  0.65658  0.06466  0.41628  1.0000
  O   O26       1.0  0.84015  0.43161  0.24171  1.0000
  C   C74       1.0  0.49908  0.29447  0.33659  1.0000
  C   C75       1.0  0.50422  0.22794  0.24655  1.0000
  C   C76       1.0  0.50600  0.27360  0.25382  1.0000
  O   O27       1.0  0.50330  0.20938  0.16414  1.0000
  O   O28       1.0  0.50901  0.29727  0.17758  1.0000
  H   H39       1.0  0.03079  0.21633  0.13412  1.0000
  H   H40       1.0  0.54018  0.30183  0.16715  1.0000
  N   N9        1.0  0.49759  0.33880  0.33955  1.0000
  H   H41       1.0  0.51321  0.35422  0.29279  1.0000
  C   C77       1.0  0.70178  0.99722  0.33643  1.0000
  C   C78       1.0  0.76832  0.99136  0.24659  1.0000
  C   C79       1.0  0.72266  0.98984  0.25383  1.0000
  O   O29       1.0  0.78686  0.99201  0.16415  1.0000
  O   O30       1.0  0.69902  0.98673  0.17755  1.0000
  H   H42       1.0  0.77977  0.46449  0.13438  1.0000
  H   H43       1.0  0.69424  0.95556  0.16759  1.0000
  N   N10       1.0  0.65746  0.99900  0.33922  1.0000
  H   H44       1.0  0.64196  0.98333  0.29261  1.0000
  C   C80       1.0  0.51457  0.01464  0.32957  1.0000
  C   C81       1.0  0.53714  0.09032  0.29991  1.0000
  C   C82       1.0  0.50455  0.05757  0.30016  1.0000
  C   C83       1.0  0.56561  0.46289  0.39356  1.0000
  C   C84       1.0  0.96271  0.06555  0.26552  1.0000
  H   H45       1.0  0.60250  0.10284  0.32982  1.0000
  C   C85       1.0  0.99172  0.43878  0.35902  1.0000
  C   C86       1.0  0.95910  0.40607  0.35958  1.0000
  C   C87       1.0  0.91724  0.41708  0.32959  1.0000
  C   C88       1.0  0.53359  0.43078  0.39351  1.0000
  H   H46       1.0  0.89373  0.39356  0.32967  1.0000
  H   H47       1.0  0.54139  0.40153  0.42125  1.0000
  H   H48       1.0  0.95490  0.09481  0.23785  1.0000
  C   C89       1.0  0.53007  0.13441  0.27702  1.0000
  C   C90       1.0  0.96616  0.36200  0.38253  1.0000
  O   O31       1.0  0.56428  0.15666  0.24269  1.0000
  O   O32       1.0  0.93195  0.33974  0.41686  1.0000
  C   C91       1.0  0.49186  0.26831  0.41270  1.0000
  C   C92       1.0  0.49009  0.22267  0.40543  1.0000
  C   C93       1.0  0.49703  0.20179  0.32267  1.0000
  O   O33       1.0  0.48706  0.19899  0.48166  1.0000
  H   H49       1.0  0.45589  0.19442  0.49203  1.0000
  O   O34       1.0  0.49278  0.28690  0.49510  1.0000
  H   H50       1.0  0.46532  0.27991  0.52519  1.0000
  N   N11       1.0  0.49839  0.15747  0.31966  1.0000
  H   H51       1.0  0.48294  0.14194  0.36649  1.0000
  C   C94       1.0  0.72794  0.00458  0.41245  1.0000
  C   C95       1.0  0.77360  0.00607  0.40525  1.0000
  C   C96       1.0  0.79449  0.99875  0.32263  1.0000
  O   O35       1.0  0.79725  0.00923  0.48150  1.0000
  H   H52       1.0  0.80194  0.04041  0.49149  1.0000
  O   O36       1.0  0.70936  0.00401  0.49487  1.0000
  H   H53       1.0  0.71646  0.03154  0.52457  1.0000
  N   N12       1.0  0.83881  0.99715  0.31982  1.0000
  H   H54       1.0  0.85428  0.01278  0.36654  1.0000
  C   C97       1.0  0.55751  0.50474  0.35905  1.0000
  C   C98       1.0  0.59015  0.53743  0.35954  1.0000
  C   C99       1.0  0.57902  0.57929  0.32976  1.0000
  C   C100      1.0  0.98172  0.98169  0.32951  1.0000
  C   C101      1.0  0.90615  0.95890  0.29944  1.0000
  C   C102      1.0  0.93879  0.99158  0.29992  1.0000
  C   C103      1.0  0.93070  0.53343  0.26542  1.0000
  H   H55       1.0  0.59489  0.95515  0.42123  1.0000
  H   H56       1.0  0.90142  0.54117  0.23773  1.0000
  C   C104      1.0  0.63426  0.53042  0.38223  1.0000
  C   C105      1.0  0.86207  0.96595  0.27638  1.0000
  O   O37       1.0  0.65658  0.56466  0.41628  1.0000
  O   O38       1.0  0.84015  0.93161  0.24171  1.0000
  C   C106      1.0  0.49908  0.79447  0.33659  1.0000
  C   C107      1.0  0.50422  0.72795  0.24655  1.0000
  C   C108      1.0  0.50600  0.77360  0.25382  1.0000
  O   O39       1.0  0.50330  0.70938  0.16414  1.0000
  O   O40       1.0  0.50901  0.79727  0.17758  1.0000
  H   H57       1.0  0.03079  0.71633  0.13412  1.0000
  H   H58       1.0  0.54018  0.80183  0.16715  1.0000
  N   N13       1.0  0.49759  0.83880  0.33955  1.0000
  H   H59       1.0  0.51321  0.85422  0.29279  1.0000
  C   C109      1.0  0.70178  0.49722  0.33643  1.0000
  C   C110      1.0  0.76832  0.49136  0.24659  1.0000
  C   C111      1.0  0.72266  0.48984  0.25383  1.0000
  O   O41       1.0  0.78686  0.49201  0.16415  1.0000
  O   O42       1.0  0.69902  0.48673  0.17755  1.0000
  H   H60       1.0  0.77977  0.96450  0.13438  1.0000
  H   H61       1.0  0.69424  0.45556  0.16759  1.0000
  N   N14       1.0  0.65746  0.49900  0.33922  1.0000
  H   H62       1.0  0.64196  0.48333  0.29261  1.0000
  C   C112      1.0  0.51457  0.51465  0.32957  1.0000
  C   C113      1.0  0.53714  0.59032  0.29991  1.0000
  C   C114      1.0  0.50455  0.55757  0.30016  1.0000
  C   C115      1.0  0.56561  0.96289  0.39356  1.0000
  C   C116      1.0  0.96271  0.56555  0.26552  1.0000
  H   H63       1.0  0.60250  0.60284  0.32982  1.0000
  C   C117      1.0  0.99172  0.93878  0.35902  1.0000
  C   C118      1.0  0.95910  0.90607  0.35958  1.0000
  C   C119      1.0  0.91724  0.91708  0.32959  1.0000
  C   C120      1.0  0.53359  0.93078  0.39351  1.0000
  H   H64       1.0  0.89373  0.89356  0.32967  1.0000
  H   H65       1.0  0.54139  0.90153  0.42125  1.0000
  H   H66       1.0  0.95490  0.59481  0.23785  1.0000
  C   C121      1.0  0.53007  0.63441  0.27702  1.0000
  C   C122      1.0  0.96616  0.86200  0.38253  1.0000
  O   O43       1.0  0.56428  0.65666  0.24269  1.0000
  O   O44       1.0  0.93195  0.83974  0.41686  1.0000
  C   C123      1.0  0.49186  0.76832  0.41270  1.0000
  C   C124      1.0  0.49009  0.72267  0.40543  1.0000
  C   C125      1.0  0.49703  0.70179  0.32267  1.0000
  O   O45       1.0  0.48706  0.69899  0.48166  1.0000
  H   H67       1.0  0.45589  0.69442  0.49203  1.0000
  O   O46       1.0  0.49278  0.78690  0.49510  1.0000
  H   H68       1.0  0.46532  0.77991  0.52519  1.0000
  N   N15       1.0  0.49839  0.65747  0.31966  1.0000
  H   H69       1.0  0.48294  0.64194  0.36649  1.0000
  C   C126      1.0  0.72794  0.50458  0.41245  1.0000
  C   C127      1.0  0.77360  0.50607  0.40525  1.0000
  C   C128      1.0  0.79449  0.49875  0.32263  1.0000
  O   O47       1.0  0.79725  0.50923  0.48150  1.0000
  H   H70       1.0  0.80194  0.54041  0.49149  1.0000
  O   O48       1.0  0.70936  0.50401  0.49487  1.0000
  H   H71       1.0  0.71646  0.53154  0.52457  1.0000
  N   N16       1.0  0.83881  0.49715  0.31982  1.0000
  H   H72       1.0  0.85428  0.51278  0.36654  1.0000
