data_image0
_chemical_formula_structural       CH4CH4CNCHNHCNCHNHCNCHNHC29H17C3O3C29H17C3O3CNCHNHCNCHNHCNCHNH
_chemical_formula_sum              "C78 H54 N12 O6"
_cell_length_a       44.9445
_cell_length_b       44.9444
_cell_length_c       14.9973
_cell_angle_alpha    90
_cell_angle_beta     90
_cell_angle_gamma    120

_space_group_name_H-M_alt    "P 1"
_space_group_IT_number       1

loop_
  _space_group_symop_operation_xyz
  'x, y, z'

loop_
  _atom_site_type_symbol
  _atom_site_label
  _atom_site_symmetry_multiplicity
  _atom_site_fract_x
  _atom_site_fract_y
  _atom_site_fract_z
  _atom_site_occupancy
  C   C1        1.0  0.40864  0.85466  0.32168  1.0000
  H   H1        1.0  0.39769  0.86988  0.32079  1.0000
  H   H2        1.0  0.36145  0.80952  0.30014  1.0000
  H   H3        1.0  0.47237  0.60255  0.32080  1.0000
  H   H4        1.0  0.13035  0.52786  0.32079  1.0000
  C   C2        1.0  0.59111  0.14575  0.33231  1.0000
  H   H5        1.0  0.60183  0.13067  0.32103  1.0000
  H   H6        1.0  0.63931  0.19087  0.33826  1.0000
  H   H7        1.0  0.52902  0.39840  0.32085  1.0000
  H   H8        1.0  0.86956  0.47120  0.32088  1.0000
  C   C3        1.0  0.48254  0.51845  0.31975  1.0000
  N   N1        1.0  0.50431  0.51900  0.25592  1.0000
  C   C4        1.0  0.52079  0.50076  0.26308  1.0000
  H   H9        1.0  0.53576  0.50144  0.21107  1.0000
  N   N2        1.0  0.46717  0.53790  0.30841  1.0000
  H   H10       1.0  0.47624  0.55473  0.26027  1.0000
  C   C5        1.0  0.48178  0.96414  0.31973  1.0000
  N   N3        1.0  0.48123  0.98537  0.25591  1.0000
  C   C6        1.0  0.49949  0.02009  0.26306  1.0000
  H   H11       1.0  0.49879  0.03438  0.21107  1.0000
  N   N4        1.0  0.46234  0.92932  0.30836  1.0000
  H   H12       1.0  0.44551  0.92156  0.26022  1.0000
  C   C7        1.0  0.03609  0.51769  0.31972  1.0000
  N   N5        1.0  0.01487  0.49589  0.25593  1.0000
  C   C8        1.0  0.98015  0.47941  0.26309  1.0000
  H   H13       1.0  0.96587  0.46443  0.21109  1.0000
  N   N6        1.0  0.07092  0.53307  0.30836  1.0000
  H   H14       1.0  0.07867  0.52399  0.26024  1.0000
  C   C9        1.0  0.44424  0.86903  0.33795  1.0000
  C   C10       1.0  0.45768  0.84651  0.34170  1.0000
  C   C11       1.0  0.43635  0.81093  0.32927  1.0000
  C   C12       1.0  0.40068  0.79661  0.31468  1.0000
  C   C13       1.0  0.38719  0.81902  0.31009  1.0000
  C   C14       1.0  0.37893  0.76144  0.30469  1.0000
  C   C15       1.0  0.37845  0.73796  0.36121  1.0000
  C   C16       1.0  0.35610  0.70289  0.35351  1.0000
  C   C17       1.0  0.32011  0.68914  0.35418  1.0000
  C   C18       1.0  0.29735  0.65326  0.35364  1.0000
  C   C19       1.0  0.31109  0.63101  0.35423  1.0000
  C   C20       1.0  0.34697  0.64413  0.35362  1.0000
  C   C21       1.0  0.36922  0.68013  0.35413  1.0000
  C   C22       1.0  0.35970  0.62179  0.36129  1.0000
  C   C23       1.0  0.38268  0.62129  0.30474  1.0000
  C   C24       1.0  0.39610  0.59954  0.31470  1.0000
  C   C25       1.0  0.43201  0.61304  0.31013  1.0000
  C   C26       1.0  0.37476  0.56388  0.32933  1.0000
  C   C27       1.0  0.38902  0.54255  0.34179  1.0000
  C   C28       1.0  0.42497  0.55600  0.33800  1.0000
  C   C29       1.0  0.44620  0.59159  0.32163  1.0000
  C   C30       1.0  0.26228  0.64054  0.36132  1.0000
  C   C31       1.0  0.23880  0.61753  0.30480  1.0000
  C   C32       1.0  0.20363  0.60412  0.31476  1.0000
  C   C33       1.0  0.18931  0.62547  0.32933  1.0000
  C   C34       1.0  0.18121  0.56822  0.31020  1.0000
  C   C35       1.0  0.14557  0.55403  0.32168  1.0000
  C   C36       1.0  0.13121  0.57527  0.33794  1.0000
  C   C37       1.0  0.15373  0.61122  0.34172  1.0000
  H   H15       1.0  0.48334  0.85586  0.35253  1.0000
  H   H16       1.0  0.44711  0.79554  0.33172  1.0000
  H   H17       1.0  0.39527  0.68987  0.35721  1.0000
  H   H18       1.0  0.31037  0.70545  0.35724  1.0000
  H   H19       1.0  0.29478  0.60496  0.35733  1.0000
  H   H20       1.0  0.20471  0.65163  0.33177  1.0000
  H   H21       1.0  0.44824  0.63878  0.30010  1.0000
  H   H22       1.0  0.37271  0.51690  0.35264  1.0000
  H   H23       1.0  0.34860  0.55311  0.33179  1.0000
  H   H24       1.0  0.14438  0.62753  0.35254  1.0000
  H   H25       1.0  0.19071  0.55197  0.30018  1.0000
  H   H26       1.0  0.39171  0.63818  0.25489  1.0000
  H   H27       1.0  0.35096  0.60524  0.41190  1.0000
  H   H28       1.0  0.36202  0.75359  0.25491  1.0000
  H   H29       1.0  0.39502  0.74576  0.41176  1.0000
  H   H30       1.0  0.24665  0.60849  0.25499  1.0000
  H   H31       1.0  0.25447  0.64930  0.41188  1.0000
  C   C38       1.0  0.09534  0.56108  0.35327  1.0000
  C   C39       1.0  0.43918  0.53434  0.35341  1.0000
  C   C40       1.0  0.46591  0.90489  0.35331  1.0000
  O   O1        1.0  0.42236  0.50807  0.41164  1.0000
  O   O2        1.0  0.49214  0.91434  0.41170  1.0000
  O   O3        1.0  0.08589  0.57787  0.41164  1.0000
  C   C41       1.0  0.55496  0.13125  0.33508  1.0000
  C   C42       1.0  0.54192  0.15391  0.34674  1.0000
  C   C43       1.0  0.56406  0.18953  0.35613  1.0000
  C   C44       1.0  0.60007  0.20372  0.35291  1.0000
  C   C45       1.0  0.61333  0.18136  0.34163  1.0000
  C   C46       1.0  0.62236  0.23879  0.36107  1.0000
  C   C47       1.0  0.62134  0.26216  0.30706  1.0000
  C   C48       1.0  0.64400  0.29729  0.31276  1.0000
  C   C49       1.0  0.67998  0.31091  0.31208  1.0000
  C   C50       1.0  0.70294  0.34676  0.31274  1.0000
  C   C51       1.0  0.68931  0.36912  0.31208  1.0000
  C   C52       1.0  0.65347  0.35623  0.31273  1.0000
  C   C53       1.0  0.63111  0.32024  0.31210  1.0000
  C   C54       1.0  0.64099  0.37888  0.30702  1.0000
  C   C55       1.0  0.61659  0.37785  0.36100  1.0000
  C   C56       1.0  0.60382  0.40014  0.35284  1.0000
  C   C57       1.0  0.56819  0.38688  0.34151  1.0000
  C   C58       1.0  0.62564  0.43616  0.35611  1.0000
  C   C59       1.0  0.61216  0.45829  0.34672  1.0000
  C   C60       1.0  0.57646  0.44526  0.33499  1.0000
  C   C61       1.0  0.55480  0.40910  0.33218  1.0000
  C   C62       1.0  0.73807  0.35923  0.30702  1.0000
  C   C63       1.0  0.76144  0.38363  0.36100  1.0000
  C   C64       1.0  0.79651  0.39640  0.35283  1.0000
  C   C65       1.0  0.81070  0.37458  0.35609  1.0000
  C   C66       1.0  0.81887  0.43202  0.34145  1.0000
  C   C67       1.0  0.85448  0.44541  0.33215  1.0000
  C   C68       1.0  0.86898  0.42375  0.33500  1.0000
  C   C69       1.0  0.84632  0.38806  0.34672  1.0000
  H   H32       1.0  0.51601  0.14469  0.34964  1.0000
  H   H33       1.0  0.55363  0.20502  0.36511  1.0000
  H   H34       1.0  0.60506  0.31061  0.30955  1.0000
  H   H35       1.0  0.68961  0.29449  0.30956  1.0000
  H   H36       1.0  0.70573  0.39516  0.30952  1.0000
  H   H37       1.0  0.79521  0.34867  0.36511  1.0000
  H   H38       1.0  0.55172  0.36090  0.33809  1.0000
  H   H39       1.0  0.62885  0.48421  0.34964  1.0000
  H   H40       1.0  0.65155  0.44659  0.36513  1.0000
  H   H41       1.0  0.85554  0.37137  0.34962  1.0000
  H   H42       1.0  0.80937  0.44850  0.33812  1.0000
  H   H43       1.0  0.60607  0.35958  0.40726  1.0000
  H   H44       1.0  0.65121  0.39708  0.26046  1.0000
  H   H45       1.0  0.64062  0.24654  0.40734  1.0000
  H   H46       1.0  0.60315  0.25417  0.26046  1.0000
  H   H47       1.0  0.75369  0.39414  0.40727  1.0000
  H   H48       1.0  0.74605  0.34902  0.26043  1.0000
  C   C70       1.0  0.90502  0.43703  0.32338  1.0000
  C   C71       1.0  0.56319  0.46802  0.32337  1.0000
  C   C72       1.0  0.53220  0.09521  0.32348  1.0000
  O   O4        1.0  0.58501  0.50000  0.29220  1.0000
  O   O5        1.0  0.50023  0.08505  0.29225  1.0000
  O   O6        1.0  0.91517  0.41520  0.29224  1.0000
  C   C73       1.0  0.49306  0.47972  0.40404  1.0000
  N   N7        1.0  0.47744  0.49862  0.39305  1.0000
  C   C74       1.0  0.51618  0.48033  0.33923  1.0000
  H   H49       1.0  0.48803  0.46532  0.46064  1.0000
  N   N8        1.0  0.53092  0.46008  0.34934  1.0000
  H   H50       1.0  0.51788  0.43926  0.38458  1.0000
  C   C75       1.0  0.52050  0.01339  0.40405  1.0000
  N   N9        1.0  0.50161  0.97887  0.39303  1.0000
  C   C76       1.0  0.51991  0.03591  0.33923  1.0000
  H   H51       1.0  0.53490  0.02276  0.46066  1.0000
  N   N10       1.0  0.54016  0.07089  0.34936  1.0000
  H   H52       1.0  0.56097  0.07866  0.38465  1.0000
  C   C77       1.0  0.98684  0.50718  0.40399  1.0000
  N   N11       1.0  0.02136  0.52280  0.39299  1.0000
  C   C78       1.0  0.96432  0.48405  0.33919  1.0000
  H   H53       1.0  0.97747  0.51222  0.46058  1.0000
  N   N12       1.0  0.92935  0.46930  0.34934  1.0000
  H   H54       1.0  0.92156  0.48234  0.38456  1.0000
