data_image0
_chemical_formula_structural       C2HC2HC2H4C2HC2HC2H4C2HC2HC2H4C8H4C8H4C8H4CNCNCNC18H12CNCNCNC18H12CNCNCNC18H12CNCNCNC18H12C8H4C8H4C8H4C2HC2HC2H4C2HC2HC2H4C2HC2HC2H4
_chemical_formula_sum              "C168 H108 N12"
_cell_length_a       56.6407
_cell_length_b       56.6408
_cell_length_c       14.9876
_cell_angle_alpha    90
_cell_angle_beta     90
_cell_angle_gamma    120

_space_group_name_H-M_alt    "P 1"
_space_group_IT_number       1

loop_
  _space_group_symop_operation_xyz
  'x, y, z'

loop_
  _atom_site_type_symbol
  _atom_site_label
  _atom_site_symmetry_multiplicity
  _atom_site_fract_x
  _atom_site_fract_y
  _atom_site_fract_z
  _atom_site_occupancy
  C   C1        1.0  0.18262  0.09332  0.26015  1.0000
  C   C2        1.0  0.15379  0.07925  0.25886  1.0000
  H   H1        1.0  0.14378  0.07582  0.19918  1.0000
  C   C3        1.0  0.26930  0.12900  0.26023  1.0000
  C   C4        1.0  0.24048  0.11485  0.26197  1.0000
  H   H2        1.0  0.27915  0.12980  0.20203  1.0000
  C   C5        1.0  0.22472  0.10127  0.17979  1.0000
  C   C6        1.0  0.19820  0.10283  0.17510  1.0000
  H   H3        1.0  0.21954  0.07991  0.18110  1.0000
  H   H4        1.0  0.23670  0.11060  0.11954  1.0000
  H   H5        1.0  0.18610  0.09063  0.11838  1.0000
  H   H6        1.0  0.20335  0.12394  0.16354  1.0000
  C   C7        1.0  0.89816  0.08949  0.26012  1.0000
  C   C8        1.0  0.91222  0.07474  0.25883  1.0000
  H   H7        1.0  0.91565  0.06815  0.19914  1.0000
  C   C9        1.0  0.86248  0.14050  0.26022  1.0000
  C   C10       1.0  0.87662  0.12582  0.26196  1.0000
  H   H8        1.0  0.86167  0.14954  0.20201  1.0000
  C   C11       1.0  0.89019  0.12364  0.17977  1.0000
  C   C12       1.0  0.88863  0.09555  0.17508  1.0000
  H   H9        1.0  0.91156  0.13982  0.18105  1.0000
  H   H10       1.0  0.88086  0.12628  0.11952  1.0000
  H   H11       1.0  0.90083  0.09564  0.11835  1.0000
  H   H12       1.0  0.86752  0.07960  0.16355  1.0000
  C   C13       1.0  0.90199  0.80887  0.26014  1.0000
  C   C14       1.0  0.91675  0.83769  0.25885  1.0000
  H   H13       1.0  0.92333  0.84770  0.19916  1.0000
  C   C15       1.0  0.85098  0.72218  0.26024  1.0000
  C   C16       1.0  0.86566  0.75101  0.26197  1.0000
  H   H14       1.0  0.84194  0.71233  0.20203  1.0000
  C   C17       1.0  0.86784  0.76676  0.17979  1.0000
  C   C18       1.0  0.89592  0.79329  0.17509  1.0000
  H   H15       1.0  0.85165  0.77194  0.18108  1.0000
  H   H16       1.0  0.86520  0.75479  0.11954  1.0000
  H   H17       1.0  0.89583  0.80539  0.11837  1.0000
  H   H18       1.0  0.91188  0.78813  0.16355  1.0000
  C   C19       1.0  0.50823  0.14941  0.31223  1.0000
  C   C20       1.0  0.52210  0.14838  0.23548  1.0000
  C   C21       1.0  0.54362  0.14288  0.24231  1.0000
  C   C22       1.0  0.55237  0.13852  0.32627  1.0000
  C   C23       1.0  0.57808  0.13925  0.33699  1.0000
  C   C24       1.0  0.59154  0.13426  0.26595  1.0000
  C   C25       1.0  0.61875  0.14035  0.27390  1.0000
  C   C26       1.0  0.63353  0.15177  0.35324  1.0000
  H   H19       1.0  0.58213  0.12713  0.20587  1.0000
  H   H20       1.0  0.62826  0.13828  0.21883  1.0000
  H   H21       1.0  0.51768  0.15324  0.17426  1.0000
  H   H22       1.0  0.55432  0.14471  0.18542  1.0000
  C   C27       1.0  0.84206  0.35901  0.31229  1.0000
  C   C28       1.0  0.84309  0.37391  0.23554  1.0000
  C   C29       1.0  0.84860  0.40094  0.24235  1.0000
  C   C30       1.0  0.85296  0.41406  0.32630  1.0000
  C   C31       1.0  0.85224  0.43903  0.33700  1.0000
  C   C32       1.0  0.85723  0.45749  0.26595  1.0000
  C   C33       1.0  0.85115  0.47862  0.27388  1.0000
  C   C34       1.0  0.83975  0.48200  0.35324  1.0000
  H   H23       1.0  0.86435  0.45520  0.20586  1.0000
  H   H24       1.0  0.85322  0.49019  0.21880  1.0000
  H   H25       1.0  0.83823  0.36464  0.17432  1.0000
  H   H26       1.0  0.84677  0.40980  0.18545  1.0000
  C   C35       1.0  0.63247  0.48325  0.31223  1.0000
  C   C36       1.0  0.61757  0.46938  0.23548  1.0000
  C   C37       1.0  0.59054  0.44786  0.24231  1.0000
  C   C38       1.0  0.57743  0.43911  0.32628  1.0000
  C   C39       1.0  0.55246  0.41341  0.33700  1.0000
  C   C40       1.0  0.53400  0.39994  0.26597  1.0000
  C   C41       1.0  0.51287  0.37273  0.27393  1.0000
  C   C42       1.0  0.50949  0.35795  0.35330  1.0000
  H   H27       1.0  0.53628  0.40935  0.20588  1.0000
  H   H28       1.0  0.50129  0.36322  0.21886  1.0000
  H   H29       1.0  0.62684  0.47379  0.17426  1.0000
  H   H30       1.0  0.58168  0.43716  0.18543  1.0000
  C   C43       1.0  0.98011  0.96916  0.33324  1.0000
  N   N1        1.0  0.00783  0.98344  0.33331  1.0000
  C   C44       1.0  0.02232  0.01116  0.33325  1.0000
  N   N2        1.0  0.00805  0.02460  0.33330  1.0000
  C   C45       1.0  0.98033  0.01137  0.33323  1.0000
  N   N3        1.0  0.96689  0.98365  0.33329  1.0000
  C   C46       1.0  0.05133  0.02556  0.33386  1.0000
  C   C47       1.0  0.06607  0.01310  0.36536  1.0000
  C   C48       1.0  0.09475  0.02749  0.36765  1.0000
  C   C49       1.0  0.10963  0.05461  0.33630  1.0000
  C   C50       1.0  0.09509  0.06704  0.30350  1.0000
  C   C51       1.0  0.06641  0.05285  0.30341  1.0000
  C   C52       1.0  0.96551  0.94016  0.33384  1.0000
  C   C53       1.0  0.97772  0.92508  0.30338  1.0000
  C   C54       1.0  0.96323  0.89639  0.30344  1.0000
  C   C55       1.0  0.93626  0.88186  0.33628  1.0000
  C   C56       1.0  0.92403  0.89674  0.36764  1.0000
  C   C57       1.0  0.93831  0.92541  0.36535  1.0000
  C   C58       1.0  0.96593  0.02598  0.33382  1.0000
  C   C59       1.0  0.93865  0.01377  0.30332  1.0000
  C   C60       1.0  0.92445  0.02826  0.30341  1.0000
  C   C61       1.0  0.93688  0.05523  0.33626  1.0000
  C   C62       1.0  0.96399  0.06746  0.36765  1.0000
  C   C63       1.0  0.97839  0.05318  0.36531  1.0000
  H   H31       1.0  0.97274  0.88620  0.28095  1.0000
  H   H32       1.0  0.99725  0.93483  0.27930  1.0000
  H   H33       1.0  0.90445  0.88679  0.39129  1.0000
  H   H34       1.0  0.92872  0.93541  0.38885  1.0000
  H   H35       1.0  0.92887  0.99424  0.27928  1.0000
  H   H36       1.0  0.90475  0.01876  0.28091  1.0000
  H   H37       1.0  0.99797  0.06277  0.38889  1.0000
  H   H38       1.0  0.97362  0.08704  0.39130  1.0000
  H   H39       1.0  0.05666  0.06262  0.27934  1.0000
  H   H40       1.0  0.10529  0.08674  0.28098  1.0000
  H   H41       1.0  0.10470  0.01786  0.39128  1.0000
  H   H42       1.0  0.05608  0.99351  0.38885  1.0000
  C   C64       1.0  0.44312  0.19997  0.32130  1.0000
  N   N4        1.0  0.41543  0.18678  0.32263  1.0000
  C   C65       1.0  0.40129  0.20033  0.33059  1.0000
  N   N5        1.0  0.41593  0.22802  0.33819  1.0000
  C   C66       1.0  0.44364  0.24212  0.33829  1.0000
  N   N6        1.0  0.45653  0.22750  0.32950  1.0000
  C   C67       1.0  0.37222  0.18604  0.33134  1.0000
  C   C68       1.0  0.35695  0.15847  0.30356  1.0000
  C   C69       1.0  0.32826  0.14438  0.30412  1.0000
  C   C70       1.0  0.31377  0.15720  0.33404  1.0000
  C   C71       1.0  0.32887  0.18465  0.36226  1.0000
  C   C72       1.0  0.35755  0.19886  0.36014  1.0000
  C   C73       1.0  0.45821  0.18619  0.31334  1.0000
  C   C74       1.0  0.44763  0.15903  0.34325  1.0000
  C   C75       1.0  0.46379  0.14652  0.34195  1.0000
  C   C76       1.0  0.49063  0.16050  0.30769  1.0000
  C   C77       1.0  0.50095  0.18732  0.27547  1.0000
  C   C78       1.0  0.48508  0.19999  0.27880  1.0000
  C   C79       1.0  0.45919  0.27099  0.34663  1.0000
  C   C80       1.0  0.48672  0.28380  0.37489  1.0000
  C   C81       1.0  0.50276  0.31230  0.37968  1.0000
  C   C82       1.0  0.49199  0.32916  0.35547  1.0000
  C   C83       1.0  0.46448  0.31652  0.32754  1.0000
  C   C84       1.0  0.44821  0.28788  0.32453  1.0000
  H   H43       1.0  0.45590  0.12721  0.36689  1.0000
  H   H44       1.0  0.42849  0.14851  0.37016  1.0000
  H   H45       1.0  0.52056  0.19835  0.25249  1.0000
  H   H46       1.0  0.49361  0.21963  0.25629  1.0000
  H   H47       1.0  0.49561  0.27253  0.39191  1.0000
  H   H48       1.0  0.52279  0.32064  0.39798  1.0000
  H   H49       1.0  0.42854  0.27952  0.30252  1.0000
  H   H50       1.0  0.45609  0.32811  0.30889  1.0000
  H   H51       1.0  0.36758  0.21868  0.38137  1.0000
  H   H52       1.0  0.31909  0.19469  0.38350  1.0000
  H   H53       1.0  0.31803  0.12443  0.28413  1.0000
  H   H54       1.0  0.36653  0.14830  0.28166  1.0000
  C   C85       1.0  0.79151  0.24335  0.32124  1.0000
  N   N7        1.0  0.80471  0.22885  0.32259  1.0000
  C   C86       1.0  0.79115  0.20116  0.33058  1.0000
  N   N8        1.0  0.76347  0.18811  0.33819  1.0000
  C   C87       1.0  0.74937  0.20173  0.33829  1.0000
  N   N9        1.0  0.76399  0.22923  0.32947  1.0000
  C   C88       1.0  0.80544  0.18638  0.33132  1.0000
  C   C89       1.0  0.83300  0.19867  0.30351  1.0000
  C   C90       1.0  0.84710  0.18408  0.30410  1.0000
  C   C91       1.0  0.83428  0.15677  0.33403  1.0000
  C   C92       1.0  0.80683  0.14442  0.36225  1.0000
  C   C93       1.0  0.79262  0.15889  0.36014  1.0000
  C   C94       1.0  0.80529  0.27221  0.31326  1.0000
  C   C95       1.0  0.83245  0.28880  0.34321  1.0000
  C   C96       1.0  0.84494  0.31746  0.34204  1.0000
  C   C97       1.0  0.83097  0.33033  0.30775  1.0000
  C   C98       1.0  0.80417  0.31382  0.27532  1.0000
  C   C99       1.0  0.79150  0.28528  0.27864  1.0000
  C   C100      1.0  0.72050  0.18840  0.34663  1.0000
  C   C101      1.0  0.70769  0.20313  0.37490  1.0000
  C   C102      1.0  0.67919  0.19067  0.37973  1.0000
  C   C103      1.0  0.66233  0.16305  0.35547  1.0000
  C   C104      1.0  0.67497  0.14818  0.32752  1.0000
  C   C105      1.0  0.70361  0.16054  0.32454  1.0000
  H   H55       1.0  0.86424  0.32889  0.36712  1.0000
  H   H56       1.0  0.84294  0.28018  0.37036  1.0000
  H   H57       1.0  0.79315  0.32241  0.25228  1.0000
  H   H58       1.0  0.77187  0.27416  0.25604  1.0000
  H   H59       1.0  0.71896  0.22329  0.39192  1.0000
  H   H60       1.0  0.67086  0.20237  0.39797  1.0000
  H   H61       1.0  0.71196  0.14923  0.30250  1.0000
  H   H62       1.0  0.66337  0.12820  0.30885  1.0000
  H   H63       1.0  0.77280  0.14909  0.38140  1.0000
  H   H64       1.0  0.79679  0.12459  0.38354  1.0000
  H   H65       1.0  0.86705  0.19380  0.28409  1.0000
  H   H66       1.0  0.84318  0.21842  0.28162  1.0000
  C   C106      1.0  0.74813  0.54836  0.32128  1.0000
  N   N10       1.0  0.76263  0.57606  0.32263  1.0000
  C   C107      1.0  0.79032  0.59020  0.33060  1.0000
  N   N11       1.0  0.80337  0.57556  0.33818  1.0000
  C   C108      1.0  0.78976  0.54785  0.33827  1.0000
  N   N12       1.0  0.76226  0.53496  0.32948  1.0000
  C   C109      1.0  0.80510  0.61927  0.33135  1.0000
  C   C110      1.0  0.79281  0.63454  0.30356  1.0000
  C   C111      1.0  0.80740  0.66322  0.30414  1.0000
  C   C112      1.0  0.83471  0.67771  0.33406  1.0000
  C   C113      1.0  0.84706  0.66261  0.36228  1.0000
  C   C114      1.0  0.83259  0.63394  0.36016  1.0000
  C   C115      1.0  0.71927  0.53328  0.31332  1.0000
  C   C116      1.0  0.70268  0.54385  0.34328  1.0000
  C   C117      1.0  0.67402  0.52769  0.34198  1.0000
  C   C118      1.0  0.66115  0.50085  0.30768  1.0000
  C   C119      1.0  0.67766  0.49055  0.27541  1.0000
  C   C120      1.0  0.70620  0.50642  0.27874  1.0000
  C   C121      1.0  0.80308  0.53230  0.34657  1.0000
  C   C122      1.0  0.78837  0.50477  0.37481  1.0000
  C   C123      1.0  0.80082  0.48872  0.37959  1.0000
  C   C124      1.0  0.82845  0.49950  0.35537  1.0000
  C   C125      1.0  0.84332  0.52701  0.32751  1.0000
  C   C126      1.0  0.83095  0.54327  0.32445  1.0000
  H   H67       1.0  0.66259  0.53557  0.36695  1.0000
  H   H68       1.0  0.71130  0.56298  0.37022  1.0000
  H   H69       1.0  0.66907  0.47093  0.25241  1.0000
  H   H70       1.0  0.71732  0.49789  0.25620  1.0000
  H   H71       1.0  0.76821  0.49587  0.39184  1.0000
  H   H72       1.0  0.78913  0.46870  0.39787  1.0000
  H   H73       1.0  0.84227  0.56296  0.30256  1.0000
  H   H74       1.0  0.86331  0.53541  0.30889  1.0000
  H   H75       1.0  0.84239  0.62391  0.38140  1.0000
  H   H76       1.0  0.86689  0.67240  0.38354  1.0000
  H   H77       1.0  0.79768  0.67346  0.28413  1.0000
  H   H78       1.0  0.77306  0.62496  0.28165  1.0000
  C   C127      1.0  0.13857  0.06913  0.33822  1.0000
  C   C128      1.0  0.15272  0.07337  0.41945  1.0000
  C   C129      1.0  0.18136  0.08804  0.42164  1.0000
  C   C130      1.0  0.19692  0.09868  0.34266  1.0000
  C   C131      1.0  0.22632  0.11320  0.34242  1.0000
  C   C132      1.0  0.24203  0.12742  0.41806  1.0000
  C   C133      1.0  0.27066  0.14199  0.41507  1.0000
  C   C134      1.0  0.28475  0.14275  0.33647  1.0000
  H   H79       1.0  0.23290  0.12804  0.47610  1.0000
  H   H80       1.0  0.28117  0.15180  0.47152  1.0000
  H   H81       1.0  0.14225  0.06608  0.47803  1.0000
  H   H82       1.0  0.19060  0.09008  0.48192  1.0000
  C   C135      1.0  0.92236  0.06964  0.33818  1.0000
  C   C136      1.0  0.91812  0.07955  0.41941  1.0000
  C   C137      1.0  0.90344  0.09352  0.42161  1.0000
  C   C138      1.0  0.89280  0.09843  0.34264  1.0000
  C   C139      1.0  0.87828  0.11332  0.34241  1.0000
  C   C140      1.0  0.86406  0.11480  0.41806  1.0000
  C   C141      1.0  0.84949  0.12887  0.41507  1.0000
  C   C142      1.0  0.84874  0.14220  0.33647  1.0000
  H   H83       1.0  0.86345  0.10506  0.47609  1.0000
  H   H84       1.0  0.83969  0.12957  0.47152  1.0000
  H   H85       1.0  0.92541  0.07638  0.47800  1.0000
  H   H86       1.0  0.90141  0.10072  0.48190  1.0000
  C   C143      1.0  0.92184  0.85292  0.33820  1.0000
  C   C144      1.0  0.91193  0.83877  0.41943  1.0000
  C   C145      1.0  0.89797  0.81013  0.42163  1.0000
  C   C146      1.0  0.89304  0.79456  0.34266  1.0000
  C   C147      1.0  0.87816  0.76517  0.34243  1.0000
  C   C148      1.0  0.87668  0.74946  0.41808  1.0000
  C   C149      1.0  0.86262  0.72083  0.41509  1.0000
  C   C150      1.0  0.84928  0.70674  0.33648  1.0000
  H   H87       1.0  0.88642  0.75859  0.47611  1.0000
  H   H88       1.0  0.86191  0.71032  0.47154  1.0000
  H   H89       1.0  0.91511  0.84924  0.47801  1.0000
  H   H90       1.0  0.89076  0.80089  0.48191  1.0000
  C   C151      1.0  0.53774  0.13868  0.40345  1.0000
  C   C152      1.0  0.51584  0.14386  0.39588  1.0000
  H   H91       1.0  0.50667  0.14554  0.45255  1.0000
  C   C153      1.0  0.61959  0.15471  0.42674  1.0000
  C   C154      1.0  0.59199  0.14785  0.42029  1.0000
  H   H92       1.0  0.62991  0.16273  0.48519  1.0000
  C   C155      1.0  0.57868  0.15247  0.49884  1.0000
  C   C156      1.0  0.54720  0.13544  0.49277  1.0000
  H   H93       1.0  0.58519  0.17417  0.50265  1.0000
  H   H94       1.0  0.58495  0.14677  0.56041  1.0000
  H   H95       1.0  0.53835  0.14145  0.54690  1.0000
  H   H96       1.0  0.54072  0.11389  0.50199  1.0000
  C   C157      1.0  0.85279  0.39927  0.40349  1.0000
  C   C158      1.0  0.84761  0.37219  0.39593  1.0000
  H   H97       1.0  0.84593  0.36135  0.45260  1.0000
  C   C159      1.0  0.83680  0.46511  0.42673  1.0000
  C   C160      1.0  0.84365  0.44437  0.42030  1.0000
  H   H98       1.0  0.82877  0.46740  0.48517  1.0000
  C   C161      1.0  0.83902  0.42643  0.49886  1.0000
  C   C162      1.0  0.85605  0.41198  0.49279  1.0000
  H   H99       1.0  0.81733  0.41125  0.50267  1.0000
  H   H100      1.0  0.84473  0.43841  0.56041  1.0000
  H   H101      1.0  0.85003  0.39712  0.54694  1.0000
  H   H102      1.0  0.87760  0.42705  0.50201  1.0000
  C   C163      1.0  0.59223  0.45374  0.40345  1.0000
  C   C164      1.0  0.61930  0.47564  0.39588  1.0000
  H   H103      1.0  0.63015  0.48481  0.45254  1.0000
  C   C165      1.0  0.52639  0.37190  0.42677  1.0000
  C   C166      1.0  0.54713  0.39949  0.42031  1.0000
  H   H104      1.0  0.52410  0.36158  0.48522  1.0000
  C   C167      1.0  0.56507  0.41280  0.49885  1.0000
  C   C168      1.0  0.57952  0.44428  0.49277  1.0000
  H   H105      1.0  0.58025  0.40629  0.50265  1.0000
  H   H106      1.0  0.55310  0.40653  0.56043  1.0000
  H   H107      1.0  0.59439  0.45314  0.54690  1.0000
  H   H108      1.0  0.56445  0.45077  0.50200  1.0000
