data_image0
_chemical_formula_structural       C3HC4H2CH3C3HC4H2CH3C3HC4H2CH3C5H3CH3C5H3CH3C5H3CH3NC18H12NC18H12NC18H12NC18H12C5H3CH3C5H3CH3C5H3CH3C3HC4H2CH3C3HC4H2CH3C3HC4H2CH3
_chemical_formula_sum              "C156 H120 N4"
_cell_length_a       50.4919
_cell_length_b       50.4919
_cell_length_c       14.7788
_cell_angle_alpha    90
_cell_angle_beta     90
_cell_angle_gamma    120

_space_group_name_H-M_alt    "P 1"
_space_group_IT_number       1

loop_
  _space_group_symop_operation_xyz
  'x, y, z'

loop_
  _atom_site_type_symbol
  _atom_site_label
  _atom_site_symmetry_multiplicity
  _atom_site_fract_x
  _atom_site_fract_y
  _atom_site_fract_z
  _atom_site_occupancy
  C   C1        1.0  0.23623  0.11863  0.35128  1.0000
  C   C2        1.0  0.25272  0.14937  0.32168  1.0000
  C   C3        1.0  0.28491  0.16578  0.32128  1.0000
  H   H1        1.0  0.29584  0.18799  0.29942  1.0000
  C   C4        1.0  0.20342  0.10285  0.34746  1.0000
  C   C5        1.0  0.13728  0.07048  0.34884  1.0000
  C   C6        1.0  0.15428  0.07800  0.26704  1.0000
  C   C7        1.0  0.18674  0.09352  0.26469  1.0000
  H   H2        1.0  0.14278  0.07236  0.20685  1.0000
  H   H3        1.0  0.24133  0.16016  0.29950  1.0000
  C   C8        1.0  0.20258  0.09885  0.17587  1.0000
  H   H4        1.0  0.21738  0.08884  0.17650  1.0000
  H   H5        1.0  0.21646  0.12333  0.16287  1.0000
  H   H6        1.0  0.18668  0.08871  0.11940  1.0000
  C   C9        1.0  0.89127  0.12136  0.35140  1.0000
  C   C10       1.0  0.86055  0.10713  0.32157  1.0000
  C   C11       1.0  0.84415  0.12292  0.32116  1.0000
  H   H7        1.0  0.82196  0.11166  0.29914  1.0000
  C   C12       1.0  0.90706  0.10434  0.34755  1.0000
  C   C13       1.0  0.93942  0.07056  0.34888  1.0000
  C   C14       1.0  0.93198  0.08013  0.26711  1.0000
  C   C15       1.0  0.91648  0.09709  0.26478  1.0000
  H   H8        1.0  0.93768  0.07433  0.20690  1.0000
  H   H9        1.0  0.84979  0.08497  0.29921  1.0000
  C   C16       1.0  0.91124  0.10770  0.17601  1.0000
  H   H10       1.0  0.92126  0.13251  0.17687  1.0000
  H   H11       1.0  0.88678  0.09713  0.16280  1.0000
  H   H12       1.0  0.92144  0.10200  0.11956  1.0000
  C   C17       1.0  0.88854  0.77365  0.35127  1.0000
  C   C18       1.0  0.90278  0.75716  0.32160  1.0000
  C   C19       1.0  0.88699  0.72496  0.32120  1.0000
  H   H13       1.0  0.89826  0.71403  0.29928  1.0000
  C   C20       1.0  0.90557  0.80646  0.34744  1.0000
  C   C21       1.0  0.93935  0.87261  0.34882  1.0000
  C   C22       1.0  0.92985  0.85560  0.26702  1.0000
  C   C23       1.0  0.91290  0.82313  0.26467  1.0000
  H   H14       1.0  0.93571  0.86710  0.20683  1.0000
  H   H15       1.0  0.92496  0.76855  0.29937  1.0000
  C   C24       1.0  0.90238  0.80729  0.17586  1.0000
  H   H16       1.0  0.87757  0.79250  0.17652  1.0000
  H   H17       1.0  0.91297  0.79342  0.16281  1.0000
  H   H18       1.0  0.90813  0.82320  0.11939  1.0000
  C   C25       1.0  0.66815  0.18801  0.32907  1.0000
  C   C26       1.0  0.66563  0.21404  0.30851  1.0000
  C   C27       1.0  0.63742  0.21366  0.31372  1.0000
  C   C28       1.0  0.56608  0.18446  0.26919  1.0000
  C   C29       1.0  0.53873  0.18534  0.27392  1.0000
  H   H19       1.0  0.57537  0.18541  0.20684  1.0000
  H   H20       1.0  0.52975  0.18768  0.21450  1.0000
  H   H21       1.0  0.68500  0.23403  0.29184  1.0000
  C   C30       1.0  0.63678  0.24233  0.29481  1.0000
  H   H22       1.0  0.65945  0.26177  0.28098  1.0000
  H   H23       1.0  0.62745  0.24824  0.35302  1.0000
  H   H24       1.0  0.62251  0.23918  0.23585  1.0000
  C   C31       1.0  0.82192  0.48392  0.32865  1.0000
  C   C32       1.0  0.79592  0.45537  0.30774  1.0000
  C   C33       1.0  0.79628  0.42753  0.31302  1.0000
  C   C34       1.0  0.82552  0.38540  0.26898  1.0000
  C   C35       1.0  0.82462  0.35716  0.27378  1.0000
  H   H25       1.0  0.82465  0.39376  0.20659  1.0000
  H   H26       1.0  0.82234  0.34586  0.21437  1.0000
  H   H27       1.0  0.77594  0.45476  0.29096  1.0000
  C   C36       1.0  0.76764  0.39824  0.29384  1.0000
  H   H28       1.0  0.74821  0.40147  0.27976  1.0000
  H   H29       1.0  0.76166  0.38298  0.35200  1.0000
  H   H30       1.0  0.77086  0.38714  0.23494  1.0000
  C   C37       1.0  0.52602  0.34173  0.32889  1.0000
  C   C38       1.0  0.55456  0.34428  0.30804  1.0000
  C   C39       1.0  0.58240  0.37249  0.31327  1.0000
  C   C40       1.0  0.62452  0.44385  0.26911  1.0000
  C   C41       1.0  0.65276  0.47121  0.27389  1.0000
  H   H31       1.0  0.61614  0.43462  0.20672  1.0000
  H   H32       1.0  0.66405  0.48024  0.21447  1.0000
  H   H33       1.0  0.55518  0.32491  0.29128  1.0000
  C   C42       1.0  0.61170  0.37315  0.29411  1.0000
  H   H34       1.0  0.60847  0.35049  0.28010  1.0000
  H   H35       1.0  0.62696  0.38245  0.35226  1.0000
  H   H36       1.0  0.62278  0.38745  0.23517  1.0000
  N   N1        1.0  0.00534  0.00454  0.35163  1.0000
  C   C43       1.0  0.03803  0.02085  0.35106  1.0000
  C   C44       1.0  0.98896  0.97185  0.35104  1.0000
  C   C45       1.0  0.98903  0.02092  0.35104  1.0000
  C   C46       1.0  0.99343  0.04178  0.28122  1.0000
  C   C47       1.0  0.97762  0.05823  0.28140  1.0000
  C   C48       1.0  0.95598  0.05394  0.34962  1.0000
  C   C49       1.0  0.95156  0.03251  0.41867  1.0000
  C   C50       1.0  0.96800  0.01669  0.42016  1.0000
  C   C51       1.0  0.05450  0.01648  0.28116  1.0000
  C   C52       1.0  0.08675  0.03231  0.28129  1.0000
  C   C53       1.0  0.10411  0.05391  0.34960  1.0000
  C   C54       1.0  0.08709  0.05829  0.41875  1.0000
  C   C55       1.0  0.05484  0.04185  0.42025  1.0000
  C   C56       1.0  0.99316  0.95504  0.42023  1.0000
  C   C57       1.0  0.97734  0.92279  0.41871  1.0000
  C   C58       1.0  0.95596  0.90578  0.34957  1.0000
  C   C59       1.0  0.95169  0.92313  0.28128  1.0000
  C   C60       1.0  0.96813  0.95538  0.28115  1.0000
  H   H37       1.0  0.09738  0.02729  0.23086  1.0000
  H   H38       1.0  0.04299  0.00123  0.23041  1.0000
  H   H39       1.0  0.04356  0.04570  0.47147  1.0000
  H   H40       1.0  0.09800  0.07401  0.46883  1.0000
  H   H41       1.0  0.00873  0.04557  0.23057  1.0000
  H   H42       1.0  0.98268  0.07392  0.23105  1.0000
  H   H43       1.0  0.00830  0.96632  0.47143  1.0000
  H   H44       1.0  0.98218  0.91188  0.46876  1.0000
  H   H45       1.0  0.93605  0.91250  0.23084  1.0000
  H   H46       1.0  0.96439  0.96690  0.23040  1.0000
  H   H47       1.0  0.96412  0.00153  0.47133  1.0000
  H   H48       1.0  0.93581  0.02766  0.46867  1.0000
  N   N2        1.0  0.43294  0.21842  0.34930  1.0000
  C   C61       1.0  0.45007  0.25060  0.33541  1.0000
  C   C62       1.0  0.40043  0.20204  0.35014  1.0000
  C   C63       1.0  0.45071  0.20390  0.36096  1.0000
  C   C64       1.0  0.47116  0.21224  0.43454  1.0000
  C   C65       1.0  0.49477  0.20513  0.43460  1.0000
  C   C66       1.0  0.49839  0.18855  0.36270  1.0000
  C   C67       1.0  0.47607  0.17820  0.29282  1.0000
  C   C68       1.0  0.45288  0.18602  0.29128  1.0000
  C   C69       1.0  0.45554  0.27074  0.40840  1.0000
  C   C70       1.0  0.47946  0.30138  0.40424  1.0000
  C   C71       1.0  0.49865  0.31259  0.32722  1.0000
  C   C72       1.0  0.49179  0.29277  0.25218  1.0000
  C   C73       1.0  0.46777  0.26226  0.25608  1.0000
  C   C74       1.0  0.38414  0.18621  0.42830  1.0000
  C   C75       1.0  0.35189  0.16976  0.42884  1.0000
  C   C76       1.0  0.33481  0.16903  0.35179  1.0000
  C   C77       1.0  0.35136  0.18520  0.27388  1.0000
  C   C78       1.0  0.38362  0.20121  0.27280  1.0000
  H   H49       1.0  0.48434  0.31464  0.46097  1.0000
  H   H50       1.0  0.44401  0.26244  0.46797  1.0000
  H   H51       1.0  0.46502  0.24784  0.20374  1.0000
  H   H52       1.0  0.50530  0.29991  0.19565  1.0000
  H   H53       1.0  0.47077  0.22604  0.48451  1.0000
  H   H54       1.0  0.51067  0.21441  0.48505  1.0000
  H   H55       1.0  0.39578  0.18652  0.48528  1.0000
  H   H56       1.0  0.34092  0.15874  0.48699  1.0000
  H   H57       1.0  0.34002  0.18494  0.21622  1.0000
  H   H58       1.0  0.39486  0.21238  0.21518  1.0000
  H   H59       1.0  0.43889  0.18038  0.23603  1.0000
  H   H60       1.0  0.47720  0.16588  0.23959  1.0000
  N   N3        1.0  0.79144  0.21826  0.34937  1.0000
  C   C79       1.0  0.75926  0.20319  0.33547  1.0000
  C   C80       1.0  0.80784  0.20214  0.35021  1.0000
  C   C81       1.0  0.80594  0.25056  0.36099  1.0000
  C   C82       1.0  0.79758  0.26265  0.43453  1.0000
  C   C83       1.0  0.80464  0.29335  0.43444  1.0000
  C   C84       1.0  0.82128  0.31356  0.36262  1.0000
  C   C85       1.0  0.83170  0.30161  0.29289  1.0000
  C   C86       1.0  0.82387  0.27060  0.29135  1.0000
  C   C87       1.0  0.73915  0.18851  0.40848  1.0000
  C   C88       1.0  0.70851  0.18178  0.40434  1.0000
  C   C89       1.0  0.69729  0.18977  0.32735  1.0000
  C   C90       1.0  0.71710  0.20275  0.25229  1.0000
  C   C91       1.0  0.74762  0.20925  0.25614  1.0000
  C   C92       1.0  0.82367  0.20169  0.42836  1.0000
  C   C93       1.0  0.84013  0.18590  0.42890  1.0000
  C   C94       1.0  0.84086  0.16954  0.35187  1.0000
  C   C95       1.0  0.82468  0.16992  0.27396  1.0000
  C   C96       1.0  0.80867  0.18616  0.27288  1.0000
  H   H61       1.0  0.69524  0.17338  0.46107  1.0000
  H   H62       1.0  0.74745  0.18526  0.46804  1.0000
  H   H63       1.0  0.76204  0.22093  0.20383  1.0000
  H   H64       1.0  0.70996  0.20913  0.19581  1.0000
  H   H65       1.0  0.78376  0.24846  0.48450  1.0000
  H   H66       1.0  0.79540  0.30000  0.48495  1.0000
  H   H67       1.0  0.82336  0.21302  0.48534  1.0000
  H   H68       1.0  0.85115  0.18594  0.48707  1.0000
  H   H69       1.0  0.82495  0.15885  0.21629  1.0000
  H   H70       1.0  0.79749  0.18623  0.21525  1.0000
  H   H71       1.0  0.82954  0.26224  0.23617  1.0000
  H   H72       1.0  0.84405  0.31505  0.23970  1.0000
  N   N4        1.0  0.79165  0.57693  0.34931  1.0000
  C   C97       1.0  0.80672  0.55983  0.33517  1.0000
  C   C98       1.0  0.80776  0.60945  0.35012  1.0000
  C   C99       1.0  0.75936  0.55912  0.36102  1.0000
  C   C100      1.0  0.74727  0.53866  0.43455  1.0000
  C   C101      1.0  0.71657  0.51503  0.43449  1.0000
  C   C102      1.0  0.69634  0.51148  0.36274  1.0000
  C   C103      1.0  0.70829  0.53385  0.29301  1.0000
  C   C104      1.0  0.73931  0.55702  0.29141  1.0000
  C   C105      1.0  0.82142  0.55440  0.40815  1.0000
  C   C106      1.0  0.82816  0.53050  0.40394  1.0000
  C   C107      1.0  0.82015  0.51129  0.32695  1.0000
  C   C108      1.0  0.80719  0.51815  0.25191  1.0000
  C   C109      1.0  0.80070  0.54217  0.25577  1.0000
  C   C110      1.0  0.80823  0.62573  0.42830  1.0000
  C   C111      1.0  0.82402  0.65799  0.42882  1.0000
  C   C112      1.0  0.84035  0.67507  0.35176  1.0000
  C   C113      1.0  0.83995  0.65852  0.27382  1.0000
  C   C114      1.0  0.82370  0.62626  0.27274  1.0000
  H   H73       1.0  0.83647  0.52558  0.46077  1.0000
  H   H74       1.0  0.82457  0.56589  0.46778  1.0000
  H   H75       1.0  0.78898  0.54490  0.20357  1.0000
  H   H76       1.0  0.80080  0.50463  0.19541  1.0000
  H   H77       1.0  0.76148  0.53903  0.48446  1.0000
  H   H78       1.0  0.70993  0.49914  0.48498  1.0000
  H   H79       1.0  0.79693  0.61410  0.48532  1.0000
  H   H80       1.0  0.82400  0.66896  0.48702  1.0000
  H   H81       1.0  0.85100  0.66986  0.21613  1.0000
  H   H82       1.0  0.82362  0.61502  0.21511  1.0000
  H   H83       1.0  0.74766  0.57104  0.23623  1.0000
  H   H84       1.0  0.69485  0.53275  0.23980  1.0000
  C   C115      1.0  0.30198  0.15235  0.35237  1.0000
  C   C116      1.0  0.28545  0.12175  0.38340  1.0000
  C   C117      1.0  0.25299  0.10460  0.38285  1.0000
  C   C118      1.0  0.18679  0.09603  0.42930  1.0000
  C   C119      1.0  0.15459  0.07991  0.42991  1.0000
  H   H85       1.0  0.19808  0.10241  0.48995  1.0000
  H   H86       1.0  0.14395  0.07465  0.49147  1.0000
  H   H87       1.0  0.29741  0.11145  0.40467  1.0000
  C   C120      1.0  0.23727  0.07209  0.41279  1.0000
  H   H88       1.0  0.25325  0.06425  0.43003  1.0000
  H   H89       1.0  0.22244  0.05738  0.35885  1.0000
  H   H90       1.0  0.22344  0.06918  0.47265  1.0000
  C   C121      1.0  0.85755  0.15339  0.35245  1.0000
  C   C122      1.0  0.88812  0.16744  0.38368  1.0000
  C   C123      1.0  0.90527  0.15212  0.38316  1.0000
  C   C124      1.0  0.91380  0.09444  0.42936  1.0000
  C   C125      1.0  0.92991  0.07835  0.42995  1.0000
  H   H91       1.0  0.90735  0.09928  0.49001  1.0000
  H   H92       1.0  0.93510  0.07291  0.49150  1.0000
  H   H93       1.0  0.89840  0.18968  0.40513  1.0000
  C   C126      1.0  0.93775  0.16888  0.41340  1.0000
  H   H94       1.0  0.94557  0.19269  0.43082  1.0000
  H   H95       1.0  0.95251  0.16881  0.35956  1.0000
  H   H96       1.0  0.94060  0.15791  0.47323  1.0000
  C   C127      1.0  0.85650  0.70790  0.35233  1.0000
  C   C128      1.0  0.84244  0.72443  0.38339  1.0000
  C   C129      1.0  0.85776  0.75689  0.38289  1.0000
  C   C130      1.0  0.91539  0.82310  0.42928  1.0000
  C   C131      1.0  0.93148  0.85529  0.42989  1.0000
  H   H97       1.0  0.91051  0.81180  0.48992  1.0000
  H   H98       1.0  0.93688  0.86593  0.49144  1.0000
  H   H99       1.0  0.82019  0.71247  0.40478  1.0000
  C   C132      1.0  0.84098  0.77262  0.41293  1.0000
  H   H100      1.0  0.81716  0.75664  0.43020  1.0000
  H   H101      1.0  0.84109  0.78745  0.35904  1.0000
  H   H102      1.0  0.85191  0.78643  0.47281  1.0000
  C   C133      1.0  0.61063  0.18608  0.33959  1.0000
  C   C134      1.0  0.61306  0.15997  0.35949  1.0000
  C   C135      1.0  0.64140  0.16101  0.35543  1.0000
  H   H103      1.0  0.64227  0.14171  0.37088  1.0000
  C   C136      1.0  0.58150  0.18410  0.34851  1.0000
  C   C137      1.0  0.52497  0.18489  0.35790  1.0000
  C   C138      1.0  0.53997  0.18306  0.43688  1.0000
  C   C139      1.0  0.56814  0.18325  0.43407  1.0000
  H   H104      1.0  0.53040  0.18202  0.49868  1.0000
  H   H105      1.0  0.59412  0.13990  0.37820  1.0000
  C   C140      1.0  0.58372  0.18404  0.52049  1.0000
  H   H106      1.0  0.60655  0.20419  0.52193  1.0000
  H   H107      1.0  0.58574  0.16360  0.52642  1.0000
  H   H108      1.0  0.57140  0.18501  0.57997  1.0000
  C   C141      1.0  0.82383  0.42832  0.33924  1.0000
  C   C142      1.0  0.84992  0.45684  0.35939  1.0000
  C   C143      1.0  0.84888  0.48414  0.35528  1.0000
  H   H109      1.0  0.86816  0.50431  0.37097  1.0000
  C   C144      1.0  0.82581  0.40116  0.34826  1.0000
  C   C145      1.0  0.82498  0.34382  0.35781  1.0000
  C   C146      1.0  0.82671  0.36062  0.43675  1.0000
  C   C147      1.0  0.82653  0.38861  0.43386  1.0000
  H   H110      1.0  0.82768  0.35208  0.49860  1.0000
  H   H111      1.0  0.86996  0.45796  0.37835  1.0000
  C   C148      1.0  0.82564  0.40337  0.52022  1.0000
  H   H112      1.0  0.80549  0.40606  0.52140  1.0000
  H   H113      1.0  0.84608  0.42582  0.52636  1.0000
  H   H114      1.0  0.82459  0.39006  0.57974  1.0000
  C   C149      1.0  0.58161  0.39926  0.33940  1.0000
  C   C150      1.0  0.55308  0.39682  0.35949  1.0000
  C   C151      1.0  0.52578  0.36848  0.35543  1.0000
  H   H115      1.0  0.50561  0.36759  0.37110  1.0000
  C   C152      1.0  0.60875  0.42839  0.34840  1.0000
  C   C153      1.0  0.66610  0.48491  0.35790  1.0000
  C   C154      1.0  0.64929  0.46984  0.43687  1.0000
  C   C155      1.0  0.62131  0.44168  0.43399  1.0000
  H   H116      1.0  0.65784  0.47937  0.49870  1.0000
  H   H117      1.0  0.55195  0.41574  0.37842  1.0000
  C   C156      1.0  0.60654  0.42604  0.52036  1.0000
  H   H118      1.0  0.60385  0.40320  0.52159  1.0000
  H   H119      1.0  0.58409  0.42403  0.52646  1.0000
  H   H120      1.0  0.61985  0.43831  0.57987  1.0000
