data_image0
_chemical_formula_structural       C8HC7HCH4N3C8HC7HCH4N4C2NC3H3CHC2NC3H3CHC2NC3H3CHC2NC3H3CHC2NC3H3CHC2NC3H3CHC8HC7HCH4N5C5NH3CHC5NH3CHC5NH3CHC5NH3CHC5NH3CHC5NH3CH
_chemical_formula_sum              "C120 H66 N24"
_cell_length_a       38.219
_cell_length_b       38.2192
_cell_length_c       14.997
_cell_angle_alpha    90.0002
_cell_angle_beta     89.9998
_cell_angle_gamma    120

_space_group_name_H-M_alt    "P 1"
_space_group_IT_number       1

loop_
  _space_group_symop_operation_xyz
  'x, y, z'

loop_
  _atom_site_type_symbol
  _atom_site_label
  _atom_site_symmetry_multiplicity
  _atom_site_fract_x
  _atom_site_fract_y
  _atom_site_fract_z
  _atom_site_occupancy
  C   C1        1.0  0.55280  0.57785  0.33047  1.0000
  C   C2        1.0  0.59013  0.57785  0.33101  1.0000
  C   C3        1.0  0.62727  0.61500  0.32984  1.0000
  C   C4        1.0  0.62684  0.65168  0.32849  1.0000
  C   C5        1.0  0.59026  0.65215  0.32828  1.0000
  C   C6        1.0  0.55298  0.61523  0.32920  1.0000
  C   C7        1.0  0.58912  0.54037  0.33084  1.0000
  C   C8        1.0  0.51570  0.61459  0.32928  1.0000
  H   H1        1.0  0.65361  0.67853  0.32825  1.0000
  C   C9        1.0  0.51531  0.54054  0.33051  1.0000
  C   C10       1.0  0.51513  0.50316  0.32925  1.0000
  C   C11       1.0  0.47784  0.46624  0.32837  1.0000
  C   C12       1.0  0.44126  0.46671  0.32864  1.0000
  C   C13       1.0  0.44083  0.50339  0.32998  1.0000
  C   C14       1.0  0.47798  0.54054  0.33109  1.0000
  C   C15       1.0  0.55241  0.50381  0.32930  1.0000
  H   H2        1.0  0.41449  0.43986  0.32841  1.0000
  C   C16       1.0  0.47898  0.57802  0.33090  1.0000
  H   H3        1.0  0.55342  0.47756  0.32863  1.0000
  H   H4        1.0  0.61523  0.53910  0.33058  1.0000
  H   H5        1.0  0.45287  0.57929  0.33065  1.0000
  H   H6        1.0  0.51469  0.64083  0.32861  1.0000
  N   N1        1.0  0.59200  0.68758  0.32125  1.0000
  N   N2        1.0  0.40578  0.50286  0.33497  1.0000
  N   N3        1.0  0.47612  0.43081  0.32134  1.0000
  C   C17       1.0  0.51540  0.05929  0.33046  1.0000
  C   C18       1.0  0.51539  0.09661  0.33102  1.0000
  C   C19       1.0  0.47824  0.09660  0.32990  1.0000
  C   C20       1.0  0.44156  0.05948  0.32851  1.0000
  C   C21       1.0  0.44111  0.02244  0.32818  1.0000
  C   C22       1.0  0.47803  0.02208  0.32915  1.0000
  C   C23       1.0  0.55287  0.13309  0.33089  1.0000
  C   C24       1.0  0.47868  0.98545  0.32923  1.0000
  H   H7        1.0  0.41471  0.05939  0.32826  1.0000
  C   C25       1.0  0.55271  0.05911  0.33048  1.0000
  C   C26       1.0  0.59009  0.09632  0.32919  1.0000
  C   C27       1.0  0.62701  0.09596  0.32827  1.0000
  C   C28       1.0  0.62655  0.05892  0.32863  1.0000
  C   C29       1.0  0.58988  0.02180  0.33000  1.0000
  C   C30       1.0  0.55272  0.02179  0.33108  1.0000
  C   C31       1.0  0.58944  0.13295  0.32925  1.0000
  H   H8        1.0  0.65341  0.05901  0.32839  1.0000
  C   C32       1.0  0.51525  0.98531  0.33092  1.0000
  H   H9        1.0  0.61568  0.16021  0.32859  1.0000
  H   H10       1.0  0.55413  0.16047  0.33059  1.0000
  H   H11       1.0  0.51398  0.95792  0.33063  1.0000
  H   H12       1.0  0.45243  0.95818  0.32854  1.0000
  N   N4        1.0  0.40568  0.98872  0.32120  1.0000
  N   N5        1.0  0.47770  0.13111  0.33492  1.0000
  N   N6        1.0  0.59042  0.98729  0.33501  1.0000
  N   N7        1.0  0.66243  0.12968  0.32129  1.0000
  C   C33       1.0  0.33984  0.48712  0.30345  1.0000
  C   C34       1.0  0.26894  0.49209  0.33063  1.0000
  N   N8        1.0  0.28080  0.48691  0.24837  1.0000
  C   C35       1.0  0.31436  0.48433  0.23232  1.0000
  C   C36       1.0  0.20909  0.49277  0.26637  1.0000
  C   C37       1.0  0.17326  0.49386  0.28026  1.0000
  H   H13       1.0  0.21754  0.49122  0.20244  1.0000
  H   H14       1.0  0.15677  0.49293  0.22564  1.0000
  H   H15       1.0  0.32060  0.48034  0.16803  1.0000
  C   C38       1.0  0.37361  0.48347  0.28771  1.0000
  H   H16       1.0  0.37323  0.46640  0.23711  1.0000
  C   C39       1.0  0.60615  0.93708  0.30350  1.0000
  C   C40       1.0  0.60114  0.86119  0.33068  1.0000
  N   N9        1.0  0.60631  0.87822  0.24842  1.0000
  C   C41       1.0  0.60891  0.91437  0.23237  1.0000
  C   C42       1.0  0.60041  0.80063  0.26643  1.0000
  C   C43       1.0  0.59927  0.76368  0.28033  1.0000
  H   H17       1.0  0.60195  0.81063  0.20249  1.0000
  H   H18       1.0  0.60017  0.74811  0.22570  1.0000
  H   H19       1.0  0.61290  0.92460  0.16808  1.0000
  C   C44       1.0  0.60981  0.97450  0.28777  1.0000
  H   H20       1.0  0.62687  0.99117  0.23714  1.0000
  C   C45       1.0  0.15617  0.75342  0.30347  1.0000
  C   C46       1.0  0.23206  0.82430  0.33063  1.0000
  N   N10       1.0  0.21502  0.81244  0.24838  1.0000
  C   C47       1.0  0.17888  0.77889  0.23233  1.0000
  C   C48       1.0  0.29259  0.88414  0.26637  1.0000
  C   C49       1.0  0.32952  0.91997  0.28026  1.0000
  H   H21       1.0  0.28259  0.87569  0.20244  1.0000
  H   H22       1.0  0.34508  0.93647  0.22563  1.0000
  H   H23       1.0  0.16864  0.77265  0.16804  1.0000
  C   C50       1.0  0.11875  0.71965  0.28774  1.0000
  H   H24       1.0  0.10208  0.72003  0.23712  1.0000
  C   C51       1.0  0.72827  0.63129  0.30336  1.0000
  C   C52       1.0  0.79917  0.62633  0.33063  1.0000
  N   N11       1.0  0.78733  0.63151  0.24836  1.0000
  C   C53       1.0  0.75378  0.63409  0.23226  1.0000
  C   C54       1.0  0.85902  0.62564  0.26644  1.0000
  C   C55       1.0  0.89485  0.62453  0.28036  1.0000
  H   H25       1.0  0.85059  0.62718  0.20249  1.0000
  H   H26       1.0  0.91134  0.62544  0.22575  1.0000
  H   H27       1.0  0.74754  0.63808  0.16796  1.0000
  C   C56       1.0  0.69449  0.63492  0.28756  1.0000
  H   H28       1.0  0.69489  0.65201  0.23701  1.0000
  C   C57       1.0  0.46196  0.18132  0.30345  1.0000
  C   C58       1.0  0.46695  0.25720  0.33066  1.0000
  N   N12       1.0  0.46176  0.24016  0.24840  1.0000
  C   C59       1.0  0.45917  0.20402  0.23233  1.0000
  C   C60       1.0  0.46764  0.31773  0.26645  1.0000
  C   C61       1.0  0.46874  0.35467  0.28036  1.0000
  H   H29       1.0  0.46609  0.30774  0.20250  1.0000
  H   H30       1.0  0.46782  0.37024  0.22574  1.0000
  H   H31       1.0  0.45518  0.19379  0.16804  1.0000
  C   C62       1.0  0.45830  0.14390  0.28770  1.0000
  H   H32       1.0  0.44124  0.12722  0.23708  1.0000
  C   C63       1.0  0.91193  0.36499  0.30341  1.0000
  C   C64       1.0  0.83605  0.29410  0.33062  1.0000
  N   N13       1.0  0.85308  0.30596  0.24836  1.0000
  C   C65       1.0  0.88922  0.33952  0.23229  1.0000
  C   C66       1.0  0.77553  0.23425  0.26639  1.0000
  C   C67       1.0  0.73861  0.19841  0.28029  1.0000
  H   H33       1.0  0.78551  0.24270  0.20245  1.0000
  H   H34       1.0  0.72305  0.18190  0.22567  1.0000
  H   H35       1.0  0.89945  0.34575  0.16799  1.0000
  C   C68       1.0  0.94934  0.39876  0.28765  1.0000
  H   H36       1.0  0.96601  0.39838  0.23702  1.0000
  C   C69       1.0  0.03397  0.54046  0.33046  1.0000
  C   C70       1.0  0.99664  0.50313  0.33103  1.0000
  C   C71       1.0  0.99665  0.46599  0.32989  1.0000
  C   C72       1.0  0.03376  0.46642  0.32852  1.0000
  C   C73       1.0  0.07081  0.50300  0.32819  1.0000
  C   C74       1.0  0.07117  0.54029  0.32915  1.0000
  C   C75       1.0  0.96016  0.50413  0.33089  1.0000
  C   C76       1.0  0.10780  0.57757  0.32923  1.0000
  H   H37       1.0  0.03385  0.43965  0.32829  1.0000
  C   C77       1.0  0.03415  0.57795  0.33049  1.0000
  C   C78       1.0  0.99694  0.57812  0.32926  1.0000
  C   C79       1.0  0.99730  0.61540  0.32840  1.0000
  C   C80       1.0  0.03434  0.65199  0.32865  1.0000
  C   C81       1.0  0.07146  0.65242  0.32997  1.0000
  C   C82       1.0  0.07147  0.61528  0.33106  1.0000
  C   C83       1.0  0.96031  0.54084  0.32933  1.0000
  H   H38       1.0  0.03426  0.67875  0.32844  1.0000
  C   C84       1.0  0.10795  0.61428  0.33087  1.0000
  H   H39       1.0  0.93305  0.53982  0.32871  1.0000
  H   H40       1.0  0.93278  0.47801  0.33066  1.0000
  H   H41       1.0  0.13533  0.64040  0.33060  1.0000
  H   H42       1.0  0.13507  0.57858  0.32853  1.0000
  N   N14       1.0  0.10452  0.50130  0.32122  1.0000
  N   N15       1.0  0.96213  0.43094  0.33492  1.0000
  N   N16       1.0  0.10598  0.68747  0.33498  1.0000
  N   N17       1.0  0.96360  0.61712  0.32138  1.0000
  N   N18       1.0  0.66232  0.61553  0.33483  1.0000
  C   C85       1.0  0.32869  0.49250  0.39014  1.0000
  C   C86       1.0  0.29357  0.49496  0.40395  1.0000
  C   C87       1.0  0.23265  0.49371  0.34011  1.0000
  C   C88       1.0  0.16010  0.49586  0.36745  1.0000
  C   C89       1.0  0.18470  0.49683  0.43890  1.0000
  N   N19       1.0  0.21905  0.49572  0.42283  1.0000
  H   H43       1.0  0.17717  0.49830  0.50369  1.0000
  H   H44       1.0  0.34577  0.49417  0.44430  1.0000
  H   H45       1.0  0.28629  0.49866  0.46753  1.0000
  C   C90       1.0  0.12467  0.49665  0.38416  1.0000
  H   H46       1.0  0.11494  0.49417  0.44678  1.0000
  C   C91       1.0  0.60075  0.92054  0.39019  1.0000
  C   C92       1.0  0.59828  0.88296  0.40401  1.0000
  C   C93       1.0  0.59949  0.82327  0.34016  1.0000
  C   C94       1.0  0.59726  0.74852  0.36751  1.0000
  C   C95       1.0  0.59633  0.77217  0.43896  1.0000
  N   N20       1.0  0.59747  0.80765  0.42289  1.0000
  H   H47       1.0  0.59485  0.76318  0.50375  1.0000
  H   H48       1.0  0.59911  0.93596  0.44436  1.0000
  H   H49       1.0  0.59459  0.87198  0.46759  1.0000
  C   C96       1.0  0.59641  0.71228  0.38424  1.0000
  H   H50       1.0  0.59867  0.70493  0.44691  1.0000
  C   C97       1.0  0.17272  0.76455  0.39015  1.0000
  C   C98       1.0  0.21030  0.79967  0.40395  1.0000
  C   C99       1.0  0.26997  0.86059  0.34011  1.0000
  C   C100      1.0  0.34468  0.93314  0.36744  1.0000
  C   C101      1.0  0.32105  0.90854  0.43890  1.0000
  N   N21       1.0  0.28559  0.87419  0.42283  1.0000
  H   H51       1.0  0.33005  0.91606  0.50368  1.0000
  H   H52       1.0  0.15731  0.74749  0.44432  1.0000
  H   H53       1.0  0.22128  0.80695  0.46754  1.0000
  C   C102      1.0  0.38090  0.96856  0.38416  1.0000
  H   H54       1.0  0.38815  0.97828  0.44678  1.0000
  C   C103      1.0  0.73941  0.62591  0.39007  1.0000
  C   C104      1.0  0.77453  0.62345  0.40392  1.0000
  C   C105      1.0  0.83546  0.62471  0.34015  1.0000
  C   C106      1.0  0.90799  0.62252  0.36757  1.0000
  C   C107      1.0  0.88338  0.62156  0.43900  1.0000
  N   N22       1.0  0.84904  0.62269  0.42288  1.0000
  H   H55       1.0  0.89089  0.62008  0.50379  1.0000
  H   H56       1.0  0.72231  0.62422  0.44420  1.0000
  H   H57       1.0  0.78179  0.61974  0.46751  1.0000
  C   C108      1.0  0.94340  0.62170  0.38432  1.0000
  H   H58       1.0  0.95308  0.62412  0.44696  1.0000
  C   C109      1.0  0.46736  0.19785  0.39014  1.0000
  C   C110      1.0  0.46983  0.23543  0.40397  1.0000
  C   C111      1.0  0.46858  0.29511  0.34016  1.0000
  C   C112      1.0  0.47075  0.36982  0.36755  1.0000
  C   C113      1.0  0.47172  0.34618  0.43899  1.0000
  N   N23       1.0  0.47060  0.31072  0.42289  1.0000
  H   H59       1.0  0.47319  0.35517  0.50377  1.0000
  H   H60       1.0  0.46903  0.18244  0.44429  1.0000
  H   H61       1.0  0.47353  0.24641  0.46756  1.0000
  C   C114      1.0  0.47157  0.40605  0.38429  1.0000
  H   H62       1.0  0.46917  0.41333  0.44694  1.0000
  C   C115      1.0  0.89540  0.35386  0.39011  1.0000
  C   C116      1.0  0.85782  0.31874  0.40393  1.0000
  C   C117      1.0  0.79815  0.25781  0.34012  1.0000
  C   C118      1.0  0.72345  0.18524  0.36749  1.0000
  C   C119      1.0  0.74709  0.20985  0.43893  1.0000
  N   N24       1.0  0.78254  0.24421  0.42284  1.0000
  H   H63       1.0  0.73810  0.20232  0.50372  1.0000
  H   H64       1.0  0.91081  0.37093  0.44426  1.0000
  H   H65       1.0  0.84684  0.31146  0.46753  1.0000
  C   C120      1.0  0.68726  0.14980  0.38421  1.0000
  H   H66       1.0  0.68004  0.14005  0.44682  1.0000
