data_image0
_chemical_formula_structural       C8H8C8H8C8H8C3H2NC3H2NC3H2NC3H2NC3H2NC3H2NC3NC3NC5NC5NC20H18C4H4C3NC3NC5NC5NC20H18C4H4C3NC3NC5NC5NC20H18C4H4C3NC2NH2NC3NC2NH2NC3NC2NH2NC3NC2NH2NC3NC2NH2NC3NC2NH2N
_chemical_formula_sum              "C192 H114 N36"
_cell_length_a       50.6592
_cell_length_b       50.6592
_cell_length_c       14.7814
_cell_angle_alpha    90.016
_cell_angle_beta     89.984
_cell_angle_gamma    120

_space_group_name_H-M_alt    "P 1"
_space_group_IT_number       1

loop_
  _space_group_symop_operation_xyz
  'x, y, z'

loop_
  _atom_site_type_symbol
  _atom_site_label
  _atom_site_symmetry_multiplicity
  _atom_site_fract_x
  _atom_site_fract_y
  _atom_site_fract_z
  _atom_site_occupancy
  C   C1        1.0  0.94097  0.59019  0.28842  1.0000
  C   C2        1.0  0.91646  0.59581  0.29670  1.0000
  C   C3        1.0  0.94185  0.43823  0.29483  1.0000
  C   C4        1.0  0.91498  0.40980  0.30582  1.0000
  C   C5        1.0  0.16198  0.53185  0.29674  1.0000
  C   C6        1.0  0.13759  0.53763  0.28849  1.0000
  C   C7        1.0  0.13697  0.68961  0.29480  1.0000
  C   C8        1.0  0.16388  0.71801  0.30584  1.0000
  H   H1        1.0  0.17591  0.72937  0.24937  1.0000
  H   H2        1.0  0.13028  0.68107  0.23087  1.0000
  H   H3        1.0  0.13442  0.54560  0.22819  1.0000
  H   H4        1.0  0.17557  0.53524  0.24162  1.0000
  H   H5        1.0  0.94866  0.44670  0.23090  1.0000
  H   H6        1.0  0.90313  0.39830  0.24931  1.0000
  H   H7        1.0  0.90287  0.59234  0.24158  1.0000
  H   H8        1.0  0.94419  0.58225  0.22812  1.0000
  C   C9        1.0  0.51250  0.43821  0.28834  1.0000
  C   C10       1.0  0.50687  0.40809  0.29658  1.0000
  C   C11       1.0  0.66447  0.59108  0.29467  1.0000
  C   C12       1.0  0.69291  0.59267  0.30573  1.0000
  C   C13       1.0  0.57081  0.71754  0.29667  1.0000
  C   C14       1.0  0.56502  0.68736  0.28844  1.0000
  C   C15       1.0  0.41313  0.53483  0.29475  1.0000
  C   C16       1.0  0.38474  0.53335  0.30581  1.0000
  H   H9        1.0  0.37337  0.53400  0.24935  1.0000
  H   H10       1.0  0.42165  0.53663  0.23082  1.0000
  H   H11       1.0  0.55702  0.67620  0.22819  1.0000
  H   H12       1.0  0.56741  0.72772  0.24154  1.0000
  H   H13       1.0  0.65604  0.58946  0.23072  1.0000
  H   H14       1.0  0.70443  0.59232  0.24923  1.0000
  H   H15       1.0  0.51034  0.39795  0.24144  1.0000
  H   H16       1.0  0.52045  0.44937  0.22806  1.0000
  C   C17       1.0  0.66462  0.16180  0.28834  1.0000
  C   C18       1.0  0.69474  0.18629  0.29660  1.0000
  C   C19       1.0  0.51160  0.16065  0.29461  1.0000
  C   C20       1.0  0.50991  0.18746  0.30558  1.0000
  C   C21       1.0  0.38550  0.94058  0.29679  1.0000
  C   C22       1.0  0.41572  0.96489  0.28850  1.0000
  C   C23       1.0  0.56844  0.96589  0.29454  1.0000
  C   C24       1.0  0.56962  0.93882  0.30561  1.0000
  H   H17       1.0  0.56891  0.92677  0.24915  1.0000
  H   H18       1.0  0.56660  0.97259  0.23063  1.0000
  H   H19       1.0  0.42683  0.96805  0.22814  1.0000
  H   H20       1.0  0.37526  0.92704  0.24164  1.0000
  H   H21       1.0  0.51327  0.15385  0.23068  1.0000
  H   H22       1.0  0.51031  0.19934  0.24906  1.0000
  H   H23       1.0  0.70490  0.19986  0.24143  1.0000
  H   H24       1.0  0.65348  0.15856  0.22802  1.0000
  C   C25       1.0  0.24257  0.52816  0.35764  1.0000
  C   C26       1.0  0.25975  0.53309  0.27778  1.0000
  C   C27       1.0  0.28687  0.53171  0.27789  1.0000
  H   H25       1.0  0.29857  0.53536  0.21839  1.0000
  H   H26       1.0  0.25244  0.53754  0.21813  1.0000
  N   N1        1.0  0.21749  0.53067  0.35231  1.0000
  C   C28       1.0  0.57448  0.80176  0.35756  1.0000
  C   C29       1.0  0.56957  0.81399  0.27767  1.0000
  C   C30       1.0  0.57098  0.84251  0.27774  1.0000
  H   H27       1.0  0.56737  0.85057  0.21823  1.0000
  H   H28       1.0  0.56513  0.80223  0.21801  1.0000
  N   N2        1.0  0.57197  0.77418  0.35226  1.0000
  C   C31       1.0  0.30096  0.86027  0.35750  1.0000
  C   C32       1.0  0.28871  0.84307  0.27767  1.0000
  C   C33       1.0  0.26021  0.81594  0.27781  1.0000
  H   H29       1.0  0.25217  0.80423  0.21832  1.0000
  H   H30       1.0  0.30048  0.85036  0.21802  1.0000
  N   N3        1.0  0.32860  0.88529  0.35219  1.0000
  C   C34       1.0  0.83554  0.59885  0.35758  1.0000
  C   C35       1.0  0.81839  0.59388  0.27767  1.0000
  C   C36       1.0  0.79113  0.59502  0.27777  1.0000
  H   H31       1.0  0.77946  0.59136  0.21823  1.0000
  H   H32       1.0  0.82580  0.58957  0.21798  1.0000
  N   N4        1.0  0.86075  0.59657  0.35224  1.0000
  C   C37       1.0  0.50379  0.32407  0.35737  1.0000
  C   C38       1.0  0.50875  0.31186  0.27748  1.0000
  C   C39       1.0  0.50760  0.28346  0.27760  1.0000
  H   H33       1.0  0.51125  0.27544  0.21805  1.0000
  H   H34       1.0  0.51304  0.32356  0.21776  1.0000
  N   N5        1.0  0.50607  0.35157  0.35202  1.0000
  C   C40       1.0  0.77859  0.26718  0.35752  1.0000
  C   C41       1.0  0.79078  0.28433  0.27761  1.0000
  C   C42       1.0  0.81918  0.31157  0.27774  1.0000
  H   H35       1.0  0.82721  0.32325  0.21821  1.0000
  H   H36       1.0  0.77907  0.27691  0.21791  1.0000
  N   N6        1.0  0.75111  0.24199  0.35221  1.0000
  C   C43       1.0  0.05668  0.65559  0.35838  1.0000
  C   C44       1.0  0.02515  0.64031  0.35687  1.0000
  C   C45       1.0  0.01452  0.60898  0.35707  1.0000
  N   N7        1.0  0.04004  0.60655  0.35719  1.0000
  C   C46       1.0  0.06616  0.63401  0.35871  1.0000
  C   C47       1.0  0.09707  0.64092  0.36123  1.0000
  C   C48       1.0  0.10636  0.61866  0.36073  1.0000
  N   N8        1.0  0.08882  0.58794  0.35621  1.0000
  C   C49       1.0  0.10562  0.57392  0.35908  1.0000
  C   C50       1.0  0.13596  0.59727  0.36571  1.0000
  C   C51       1.0  0.13642  0.62472  0.36624  1.0000
  C   C52       1.0  0.09537  0.54216  0.35784  1.0000
  C   C53       1.0  0.06408  0.51893  0.35689  1.0000
  N   N9        1.0  0.03856  0.52137  0.35706  1.0000
  C   C54       1.0  0.01245  0.49391  0.35855  1.0000
  C   C55       1.0  0.02192  0.47232  0.35794  1.0000
  C   C56       1.0  0.05344  0.48759  0.35638  1.0000
  C   C57       1.0  0.98155  0.48702  0.36131  1.0000
  C   C58       1.0  0.97225  0.50926  0.36070  1.0000
  N   N10       1.0  0.98978  0.53998  0.35618  1.0000
  C   C59       1.0  0.97296  0.55398  0.35894  1.0000
  C   C60       1.0  0.94263  0.53062  0.36553  1.0000
  C   C61       1.0  0.94218  0.50319  0.36618  1.0000
  C   C62       1.0  0.98321  0.58575  0.35788  1.0000
  C   C63       1.0  0.96036  0.59450  0.36270  1.0000
  C   C64       1.0  0.91070  0.60614  0.37938  1.0000
  C   C65       1.0  0.93041  0.61081  0.45316  1.0000
  C   C66       1.0  0.95461  0.60477  0.44530  1.0000
  C   C67       1.0  0.95801  0.45590  0.37082  1.0000
  C   C68       1.0  0.90328  0.39836  0.39309  1.0000
  C   C69       1.0  0.92004  0.41588  0.46884  1.0000
  C   C70       1.0  0.94695  0.44414  0.45799  1.0000
  C   C71       1.0  0.11821  0.53339  0.36275  1.0000
  C   C72       1.0  0.12383  0.52300  0.44529  1.0000
  C   C73       1.0  0.14793  0.51682  0.45314  1.0000
  C   C74       1.0  0.16764  0.52141  0.37936  1.0000
  C   C75       1.0  0.12064  0.67204  0.37075  1.0000
  C   C76       1.0  0.13157  0.68390  0.45793  1.0000
  C   C77       1.0  0.17551  0.72950  0.39314  1.0000
  C   C78       1.0  0.15853  0.71212  0.46883  1.0000
  H   H37       1.0  0.16637  0.71925  0.53321  1.0000
  H   H38       1.0  0.12093  0.67125  0.51425  1.0000
  H   H39       1.0  0.07023  0.67879  0.35917  1.0000
  H   H40       1.0  0.01236  0.65078  0.35650  1.0000
  H   H41       1.0  0.03968  0.58741  0.35828  1.0000
  H   H42       1.0  0.03892  0.54050  0.35891  1.0000
  H   H43       1.0  0.15580  0.64550  0.37174  1.0000
  H   H44       1.0  0.15495  0.59519  0.37112  1.0000
  H   H45       1.0  0.11063  0.52026  0.50089  1.0000
  H   H46       1.0  0.15130  0.50943  0.51427  1.0000
  H   H47       1.0  0.06623  0.47712  0.35590  1.0000
  H   H48       1.0  0.00837  0.44912  0.35867  1.0000
  H   H49       1.0  0.92363  0.53270  0.37116  1.0000
  H   H50       1.0  0.92280  0.48240  0.37180  1.0000
  H   H51       1.0  0.95748  0.45686  0.51431  1.0000
  H   H52       1.0  0.91214  0.40878  0.53318  1.0000
  H   H53       1.0  0.96780  0.60753  0.50093  1.0000
  H   H54       1.0  0.92694  0.61810  0.51435  1.0000
  C   C79       1.0  0.87494  0.37238  0.40679  1.0000
  C   C80       1.0  0.19106  0.51480  0.38939  1.0000
  C   C81       1.0  0.20391  0.75542  0.40702  1.0000
  C   C82       1.0  0.88713  0.61254  0.38946  1.0000
  H   H55       1.0  0.86329  0.37197  0.46148  1.0000
  H   H56       1.0  0.18717  0.49730  0.42875  1.0000
  H   H57       1.0  0.21537  0.75583  0.46214  1.0000
  H   H58       1.0  0.89087  0.62995  0.42904  1.0000
  C   C83       1.0  0.44710  0.48852  0.35784  1.0000
  C   C84       1.0  0.46238  0.47227  0.35625  1.0000
  C   C85       1.0  0.49371  0.49297  0.35677  1.0000
  N   N11       1.0  0.49614  0.52092  0.35689  1.0000
  C   C86       1.0  0.46869  0.51958  0.35837  1.0000
  C   C87       1.0  0.46179  0.54358  0.36112  1.0000
  C   C88       1.0  0.48403  0.57513  0.36068  1.0000
  N   N12       1.0  0.51475  0.58833  0.35612  1.0000
  C   C89       1.0  0.52874  0.61914  0.35905  1.0000
  C   C90       1.0  0.50539  0.62611  0.36576  1.0000
  C   C91       1.0  0.47796  0.59913  0.36637  1.0000
  C   C92       1.0  0.56051  0.64065  0.35781  1.0000
  C   C93       1.0  0.58374  0.63259  0.35677  1.0000
  N   N13       1.0  0.58131  0.60465  0.35691  1.0000
  C   C94       1.0  0.60877  0.60600  0.35835  1.0000
  C   C95       1.0  0.63035  0.63706  0.35782  1.0000
  C   C96       1.0  0.61507  0.65330  0.35624  1.0000
  C   C97       1.0  0.61566  0.58200  0.36101  1.0000
  C   C98       1.0  0.59342  0.55044  0.36065  1.0000
  N   N14       1.0  0.56270  0.53724  0.35617  1.0000
  C   C99       1.0  0.54871  0.50643  0.35904  1.0000
  C   C100      1.0  0.57207  0.49947  0.36567  1.0000
  C   C101      1.0  0.59951  0.52646  0.36621  1.0000
  C   C102      1.0  0.51694  0.48490  0.35783  1.0000
  C   C103      1.0  0.50820  0.45330  0.36265  1.0000
  C   C104      1.0  0.49653  0.39198  0.37923  1.0000
  C   C105      1.0  0.49185  0.40703  0.45302  1.0000
  C   C106      1.0  0.49787  0.43726  0.44519  1.0000
  C   C107      1.0  0.64678  0.58957  0.37062  1.0000
  C   C108      1.0  0.70432  0.59238  0.39302  1.0000
  C   C109      1.0  0.68679  0.59166  0.46874  1.0000
  C   C110      1.0  0.65852  0.59027  0.45782  1.0000
  C   C111      1.0  0.56927  0.67225  0.36273  1.0000
  C   C112      1.0  0.57969  0.68828  0.44525  1.0000
  C   C113      1.0  0.58588  0.71857  0.45306  1.0000
  C   C114      1.0  0.58129  0.73366  0.37925  1.0000
  C   C115      1.0  0.43068  0.53602  0.37068  1.0000
  C   C116      1.0  0.41883  0.53511  0.45787  1.0000
  C   C117      1.0  0.37326  0.53349  0.39313  1.0000
  C   C118      1.0  0.39063  0.53389  0.46882  1.0000
  H   H59       1.0  0.38350  0.53459  0.53321  1.0000
  H   H60       1.0  0.43148  0.53711  0.51418  1.0000
  H   H61       1.0  0.42390  0.47886  0.35867  1.0000
  H   H62       1.0  0.45191  0.44901  0.35606  1.0000
  H   H63       1.0  0.51528  0.53970  0.35871  1.0000
  H   H64       1.0  0.56217  0.58586  0.35846  1.0000
  H   H65       1.0  0.45717  0.59772  0.37180  1.0000
  H   H66       1.0  0.50747  0.64719  0.37121  1.0000
  H   H67       1.0  0.58244  0.67784  0.50083  1.0000
  H   H68       1.0  0.59331  0.72936  0.51414  1.0000
  H   H69       1.0  0.62554  0.67656  0.35599  1.0000
  H   H70       1.0  0.65355  0.64671  0.35860  1.0000
  H   H71       1.0  0.57001  0.47839  0.37095  1.0000
  H   H72       1.0  0.62030  0.52787  0.37141  1.0000
  H   H73       1.0  0.64579  0.58809  0.51412  1.0000
  H   H74       1.0  0.69386  0.59083  0.53309  1.0000
  H   H75       1.0  0.49511  0.44769  0.50084  1.0000
  H   H76       1.0  0.48452  0.39627  0.51417  1.0000
  C   C119      1.0  0.73031  0.59006  0.40678  1.0000
  C   C120      1.0  0.58790  0.76369  0.38922  1.0000
  C   C121      1.0  0.34738  0.53601  0.40701  1.0000
  C   C122      1.0  0.49012  0.36201  0.38927  1.0000
  H   H77       1.0  0.73074  0.57887  0.46155  1.0000
  H   H78       1.0  0.60544  0.77733  0.42843  1.0000
  H   H79       1.0  0.34700  0.54713  0.46201  1.0000
  H   H80       1.0  0.47272  0.34835  0.42891  1.0000
  C   C123      1.0  0.61469  0.04628  0.35798  1.0000
  C   C124      1.0  0.63083  0.07780  0.35638  1.0000
  C   C125      1.0  0.61004  0.08833  0.35678  1.0000
  N   N15       1.0  0.58214  0.06275  0.35687  1.0000
  C   C126      1.0  0.58360  0.03670  0.35836  1.0000
  C   C127      1.0  0.55968  0.00577  0.36093  1.0000
  C   C128      1.0  0.52811  0.99636  0.36041  1.0000
  N   N16       1.0  0.51485  0.01383  0.35593  1.0000
  C   C129      1.0  0.48405  0.99695  0.35873  1.0000
  C   C130      1.0  0.47714  0.96664  0.36531  1.0000
  C   C131      1.0  0.50417  0.96627  0.36592  1.0000
  C   C132      1.0  0.46249  0.00714  0.35761  1.0000
  C   C133      1.0  0.47046  0.03842  0.35675  1.0000
  N   N17       1.0  0.49836  0.06400  0.35697  1.0000
  C   C134      1.0  0.49690  0.09006  0.35842  1.0000
  C   C135      1.0  0.46582  0.08047  0.35794  1.0000
  C   C136      1.0  0.44968  0.04894  0.35635  1.0000
  C   C137      1.0  0.52080  0.12101  0.36101  1.0000
  C   C138      1.0  0.55237  0.13040  0.36063  1.0000
  N   N18       1.0  0.56561  0.11291  0.35618  1.0000
  C   C139      1.0  0.59641  0.12978  0.35903  1.0000
  C   C140      1.0  0.60332  0.16010  0.36560  1.0000
  C   C141      1.0  0.57631  0.16049  0.36610  1.0000
  C   C142      1.0  0.61798  0.11959  0.35777  1.0000
  C   C143      1.0  0.64953  0.14248  0.36271  1.0000
  C   C144      1.0  0.71081  0.19206  0.37930  1.0000
  C   C145      1.0  0.69575  0.17241  0.45319  1.0000
  C   C146      1.0  0.66552  0.14822  0.44535  1.0000
  C   C147      1.0  0.51313  0.14451  0.37059  1.0000
  C   C148      1.0  0.51020  0.19920  0.39283  1.0000
  C   C149      1.0  0.51098  0.18244  0.46856  1.0000
  C   C150      1.0  0.51234  0.15554  0.45775  1.0000
  C   C151      1.0  0.43091  0.98426  0.36274  1.0000
  C   C152      1.0  0.41493  0.97866  0.44536  1.0000
  C   C153      1.0  0.38461  0.95466  0.45323  1.0000
  C   C154      1.0  0.36941  0.93501  0.37942  1.0000
  C   C155      1.0  0.56730  0.98227  0.37053  1.0000
  C   C156      1.0  0.56812  0.97130  0.45774  1.0000
  C   C157      1.0  0.56940  0.92718  0.39293  1.0000
  C   C158      1.0  0.56910  0.94420  0.46864  1.0000
  H   H81       1.0  0.56833  0.93634  0.53301  1.0000
  H   H82       1.0  0.56613  0.98197  0.51404  1.0000
  H   H83       1.0  0.62441  0.03280  0.35879  1.0000
  H   H84       1.0  0.65409  0.09067  0.35620  1.0000
  H   H85       1.0  0.56333  0.06305  0.35828  1.0000
  H   H86       1.0  0.51718  0.06371  0.35826  1.0000
  H   H87       1.0  0.50563  0.94692  0.37126  1.0000
  H   H88       1.0  0.45609  0.94761  0.37064  1.0000
  H   H89       1.0  0.42542  0.99186  0.50092  1.0000
  H   H90       1.0  0.37385  0.95133  0.51437  1.0000
  H   H91       1.0  0.42642  0.03608  0.35592  1.0000
  H   H92       1.0  0.45608  0.09394  0.35865  1.0000
  H   H93       1.0  0.62438  0.17913  0.37072  1.0000
  H   H94       1.0  0.57485  0.17984  0.37123  1.0000
  H   H95       1.0  0.51462  0.14508  0.51408  1.0000
  H   H96       1.0  0.51179  0.19036  0.53289  1.0000
  H   H97       1.0  0.65507  0.13504  0.50099  1.0000
  H   H98       1.0  0.70651  0.17588  0.51436  1.0000
  C   C159      1.0  0.51253  0.22755  0.40657  1.0000
  C   C160      1.0  0.33932  0.91170  0.38945  1.0000
  C   C161      1.0  0.56665  0.89869  0.40668  1.0000
  C   C162      1.0  0.74077  0.21561  0.38932  1.0000
  H   H99       1.0  0.52370  0.23915  0.46140  1.0000
  H   H100      1.0  0.32581  0.91566  0.42908  1.0000
  H   H101      1.0  0.55534  0.88712  0.46139  1.0000
  H   H102      1.0  0.75447  0.21185  0.42868  1.0000
  C   C163      1.0  0.29836  0.52617  0.35833  1.0000
  C   C164      1.0  0.28127  0.52114  0.43901  1.0000
  C   C165      1.0  0.25384  0.52252  0.43890  1.0000
  N   N19       1.0  0.23908  0.51850  0.51913  1.0000
  C   C166      1.0  0.24871  0.51269  0.59835  1.0000
  C   C167      1.0  0.27527  0.51054  0.59805  1.0000
  N   N20       1.0  0.29043  0.51491  0.51885  1.0000
  H   H103      1.0  0.23668  0.50973  0.65662  1.0000
  H   H104      1.0  0.28325  0.50608  0.65614  1.0000
  N   N21       1.0  0.32442  0.52541  0.35265  1.0000
  C   C168      1.0  0.57652  0.85955  0.35819  1.0000
  C   C169      1.0  0.58153  0.84750  0.43891  1.0000
  C   C170      1.0  0.58012  0.81868  0.43882  1.0000
  N   N22       1.0  0.58414  0.80796  0.51908  1.0000
  C   C171      1.0  0.58995  0.82342  0.59829  1.0000
  C   C172      1.0  0.59211  0.85213  0.59794  1.0000
  N   N23       1.0  0.58776  0.86292  0.51872  1.0000
  H   H105      1.0  0.59290  0.81436  0.65657  1.0000
  H   H106      1.0  0.59658  0.86460  0.65602  1.0000
  N   N24       1.0  0.57738  0.88639  0.35254  1.0000
  C   C173      1.0  0.24317  0.80443  0.35825  1.0000
  C   C174      1.0  0.25522  0.82155  0.43891  1.0000
  C   C175      1.0  0.28402  0.84900  0.43875  1.0000
  N   N25       1.0  0.29474  0.86378  0.51897  1.0000
  C   C176      1.0  0.27931  0.85416  0.59820  1.0000
  C   C177      1.0  0.25061  0.82757  0.59795  1.0000
  N   N26       1.0  0.23983  0.81239  0.51877  1.0000
  H   H107      1.0  0.28836  0.86620  0.65645  1.0000
  H   H108      1.0  0.23817  0.81958  0.65605  1.0000
  N   N27       1.0  0.21635  0.77835  0.35257  1.0000
  C   C178      1.0  0.77950  0.60037  0.35825  1.0000
  C   C179      1.0  0.79656  0.60545  0.43899  1.0000
  C   C180      1.0  0.82412  0.60431  0.43888  1.0000
  N   N28       1.0  0.83885  0.60837  0.51917  1.0000
  C   C181      1.0  0.82908  0.61399  0.59843  1.0000
  C   C182      1.0  0.80239  0.61590  0.59812  1.0000
  N   N29       1.0  0.78725  0.61150  0.51888  1.0000
  H   H109      1.0  0.84109  0.61699  0.65673  1.0000
  H   H110      1.0  0.79429  0.62022  0.65625  1.0000
  N   N30       1.0  0.75333  0.60092  0.35259  1.0000
  C   C183      1.0  0.50229  0.26650  0.35809  1.0000
  C   C184      1.0  0.49723  0.27852  0.43882  1.0000
  C   C185      1.0  0.49836  0.30723  0.43868  1.0000
  N   N31       1.0  0.49432  0.31793  0.51896  1.0000
  C   C186      1.0  0.48872  0.30257  0.59825  1.0000
  C   C187      1.0  0.48681  0.27396  0.59798  1.0000
  N   N32       1.0  0.49120  0.26320  0.51874  1.0000
  H   H111      1.0  0.48573  0.31160  0.65654  1.0000
  H   H112      1.0  0.48251  0.26157  0.65613  1.0000
  N   N33       1.0  0.50172  0.23976  0.35240  1.0000
  C   C188      1.0  0.83613  0.32320  0.35826  1.0000
  C   C189      1.0  0.82412  0.30614  0.43900  1.0000
  C   C190      1.0  0.79542  0.27859  0.43886  1.0000
  N   N34       1.0  0.78471  0.26385  0.51913  1.0000
  C   C191      1.0  0.80008  0.27362  0.59842  1.0000
  C   C192      1.0  0.82868  0.30030  0.59816  1.0000
  N   N35       1.0  0.83945  0.31544  0.51892  1.0000
  H   H113      1.0  0.79104  0.26160  0.65670  1.0000
  H   H114      1.0  0.84108  0.30840  0.65631  1.0000
  N   N36       1.0  0.86284  0.34936  0.35263  1.0000
