data_image0
_chemical_formula_structural       NC2N2C2N2C2N2C2N2C2N2C2NC2NC2NC2NC2NC2NC2NC2NC2NC2NC2NC2NC2NC2NC2NC2NC2NC2NC2NC2NC2NC2NC2NC2NC2NC6H3C6H3C6H3C6H3C6H3C6H3C6H3C6H3C6H3C6H3C6H3C6H3C2NC2NC2NC2NC2NC2NC2NC2NC2NC2NC2NC2N2C2N2C2N2C2N2C2N2C2N2C2N2C2N2C2N2C2N2C2N2C2N2C2N
_chemical_formula_sum              "N72 C180 H36"
_cell_length_a       37.2435
_cell_length_b       37.2436
_cell_length_c       14.8014
_cell_angle_alpha    90
_cell_angle_beta     90
_cell_angle_gamma    120

_space_group_name_H-M_alt    "P 1"
_space_group_IT_number       1

loop_
  _space_group_symop_operation_xyz
  'x, y, z'

loop_
  _atom_site_type_symbol
  _atom_site_label
  _atom_site_symmetry_multiplicity
  _atom_site_fract_x
  _atom_site_fract_y
  _atom_site_fract_z
  _atom_site_occupancy
  N   N1        1.0  0.21590  0.41848  0.27039  1.0000
  C   C1        1.0  0.19489  0.37640  0.26360  1.0000
  C   C2        1.0  0.18684  0.36034  0.18300  1.0000
  N   N2        1.0  0.17969  0.34601  0.11198  1.0000
  N   N3        1.0  0.58947  0.79186  0.27036  1.0000
  C   C3        1.0  0.63155  0.81296  0.26359  1.0000
  C   C4        1.0  0.64762  0.82100  0.18299  1.0000
  N   N4        1.0  0.66196  0.82820  0.11198  1.0000
  N   N5        1.0  0.21603  0.79212  0.27033  1.0000
  C   C5        1.0  0.19495  0.81311  0.26356  1.0000
  C   C6        1.0  0.18691  0.82114  0.18296  1.0000
  N   N6        1.0  0.17972  0.82829  0.11194  1.0000
  N   N7        1.0  0.79837  0.58314  0.27043  1.0000
  C   C7        1.0  0.81936  0.62521  0.26362  1.0000
  C   C8        1.0  0.82740  0.64128  0.18301  1.0000
  N   N8        1.0  0.83455  0.65560  0.11198  1.0000
  N   N9        1.0  0.42484  0.20975  0.27049  1.0000
  C   C9        1.0  0.38276  0.18868  0.26367  1.0000
  C   C10       1.0  0.36671  0.18067  0.18306  1.0000
  N   N10       1.0  0.35238  0.17350  0.11203  1.0000
  N   N11       1.0  0.79816  0.20955  0.27024  1.0000
  C   C11       1.0  0.81925  0.18857  0.26349  1.0000
  C   C12       1.0  0.82729  0.18053  0.18290  1.0000
  N   N12       1.0  0.83449  0.17338  0.11189  1.0000
  C   C13       1.0  0.18299  0.22018  0.34436  1.0000
  C   C14       1.0  0.22658  0.17671  0.35095  1.0000
  N   N13       1.0  0.21623  0.18733  0.27115  1.0000
  C   C15       1.0  0.19519  0.20837  0.26412  1.0000
  C   C16       1.0  0.18727  0.21644  0.18343  1.0000
  N   N14       1.0  0.18017  0.22362  0.11236  1.0000
  C   C17       1.0  0.78775  0.95733  0.34437  1.0000
  C   C18       1.0  0.83126  0.04440  0.35095  1.0000
  N   N15       1.0  0.82063  0.02343  0.27116  1.0000
  C   C19       1.0  0.79958  0.98135  0.26412  1.0000
  C   C20       1.0  0.79151  0.96536  0.18344  1.0000
  N   N16       1.0  0.78433  0.95108  0.11237  1.0000
  C   C21       1.0  0.05061  0.82497  0.34435  1.0000
  C   C22       1.0  0.96355  0.78140  0.35094  1.0000
  N   N17       1.0  0.98452  0.79175  0.27114  1.0000
  C   C23       1.0  0.02660  0.81278  0.26411  1.0000
  C   C24       1.0  0.04259  0.82070  0.18342  1.0000
  N   N18       1.0  0.05686  0.82780  0.11235  1.0000
  C   C25       1.0  0.83124  0.78144  0.34436  1.0000
  C   C26       1.0  0.78773  0.82499  0.35095  1.0000
  N   N19       1.0  0.79807  0.81436  0.27115  1.0000
  C   C27       1.0  0.81908  0.79329  0.26412  1.0000
  C   C28       1.0  0.82700  0.78523  0.18343  1.0000
  N   N20       1.0  0.83409  0.77804  0.11236  1.0000
  C   C29       1.0  0.22652  0.04435  0.34436  1.0000
  C   C30       1.0  0.18297  0.95729  0.35095  1.0000
  N   N21       1.0  0.19359  0.97826  0.27116  1.0000
  C   C31       1.0  0.21467  0.02034  0.26412  1.0000
  C   C32       1.0  0.22273  0.03633  0.18344  1.0000
  N   N22       1.0  0.22991  0.05060  0.11236  1.0000
  C   C33       1.0  0.96361  0.17672  0.34435  1.0000
  C   C34       1.0  0.05068  0.22024  0.35095  1.0000
  N   N23       1.0  0.02971  0.20990  0.27115  1.0000
  C   C35       1.0  0.98763  0.18889  0.26411  1.0000
  C   C36       1.0  0.97164  0.18097  0.18343  1.0000
  N   N24       1.0  0.95737  0.17387  0.11235  1.0000
  C   C37       1.0  0.22862  0.57346  0.34089  1.0000
  C   C38       1.0  0.22879  0.64975  0.34851  1.0000
  N   N25       1.0  0.23068  0.63207  0.26949  1.0000
  C   C39       1.0  0.22900  0.59495  0.26135  1.0000
  C   C40       1.0  0.23386  0.58422  0.18052  1.0000
  N   N26       1.0  0.23838  0.57479  0.10941  1.0000
  C   C41       1.0  0.43424  0.64968  0.34147  1.0000
  C   C42       1.0  0.35828  0.57364  0.34899  1.0000
  N   N27       1.0  0.37571  0.59320  0.26981  1.0000
  C   C43       1.0  0.41278  0.62872  0.26171  1.0000
  C   C44       1.0  0.42348  0.64430  0.18085  1.0000
  N   N28       1.0  0.43291  0.65824  0.10973  1.0000
  C   C45       1.0  0.35831  0.77928  0.34163  1.0000
  C   C46       1.0  0.43446  0.77932  0.34890  1.0000
  N   N29       1.0  0.41471  0.77719  0.26994  1.0000
  C   C47       1.0  0.37924  0.77881  0.26183  1.0000
  C   C48       1.0  0.36361  0.77378  0.18098  1.0000
  N   N30       1.0  0.34962  0.76913  0.10988  1.0000
  C   C49       1.0  0.78572  0.42815  0.34126  1.0000
  C   C50       1.0  0.78555  0.35200  0.34918  1.0000
  N   N31       1.0  0.78360  0.36962  0.27005  1.0000
  C   C51       1.0  0.78536  0.40677  0.26162  1.0000
  C   C52       1.0  0.78026  0.41729  0.18077  1.0000
  N   N32       1.0  0.77554  0.42657  0.10967  1.0000
  C   C53       1.0  0.57977  0.35208  0.34076  1.0000
  C   C54       1.0  0.65604  0.42793  0.34839  1.0000
  N   N33       1.0  0.63838  0.40851  0.26927  1.0000
  C   C55       1.0  0.60121  0.37313  0.26116  1.0000
  C   C56       1.0  0.59040  0.35753  0.18037  1.0000
  N   N34       1.0  0.58089  0.34356  0.10929  1.0000
  C   C57       1.0  0.65593  0.22252  0.34156  1.0000
  C   C58       1.0  0.58008  0.22266  0.34866  1.0000
  N   N35       1.0  0.59957  0.22456  0.26955  1.0000
  C   C59       1.0  0.63504  0.22290  0.26164  1.0000
  C   C60       1.0  0.65066  0.22766  0.18085  1.0000
  N   N36       1.0  0.66463  0.23208  0.10978  1.0000
  C   C61       1.0  0.09479  0.24227  0.34878  1.0000
  C   C62       1.0  0.11707  0.22068  0.34818  1.0000
  C   C63       1.0  0.16094  0.24224  0.34657  1.0000
  C   C64       1.0  0.18252  0.28611  0.34560  1.0000
  C   C65       1.0  0.16096  0.30840  0.34641  1.0000
  C   C66       1.0  0.11709  0.28614  0.34794  1.0000
  H   H1        1.0  0.21430  0.30199  0.34385  1.0000
  H   H2        1.0  0.10121  0.30205  0.34826  1.0000
  H   H3        1.0  0.10117  0.18890  0.34865  1.0000
  C   C67       1.0  0.76568  0.84706  0.34879  1.0000
  C   C68       1.0  0.78726  0.89093  0.34819  1.0000
  C   C69       1.0  0.76569  0.91322  0.34658  1.0000
  C   C70       1.0  0.72182  0.89093  0.34562  1.0000
  C   C71       1.0  0.69954  0.84706  0.34643  1.0000
  C   C72       1.0  0.72182  0.82548  0.34795  1.0000
  H   H4        1.0  0.70593  0.90681  0.34386  1.0000
  H   H5        1.0  0.70592  0.79370  0.34826  1.0000
  H   H6        1.0  0.81904  0.90682  0.34866  1.0000
  C   C73       1.0  0.16089  0.91318  0.34879  1.0000
  C   C74       1.0  0.11702  0.89089  0.34819  1.0000
  C   C75       1.0  0.09472  0.84703  0.34656  1.0000
  C   C76       1.0  0.11701  0.82545  0.34558  1.0000
  C   C77       1.0  0.16088  0.84703  0.34639  1.0000
  C   C78       1.0  0.18247  0.89089  0.34793  1.0000
  H   H7        1.0  0.10113  0.79368  0.34381  1.0000
  H   H8        1.0  0.21425  0.90678  0.34824  1.0000
  H   H9        1.0  0.10113  0.90679  0.34866  1.0000
  C   C79       1.0  0.91944  0.75936  0.34878  1.0000
  C   C80       1.0  0.89715  0.78095  0.34818  1.0000
  C   C81       1.0  0.85329  0.75938  0.34657  1.0000
  C   C82       1.0  0.83171  0.71551  0.34560  1.0000
  C   C83       1.0  0.85328  0.69322  0.34641  1.0000
  C   C84       1.0  0.89715  0.71549  0.34793  1.0000
  H   H10       1.0  0.79994  0.69963  0.34385  1.0000
  H   H11       1.0  0.91303  0.69960  0.34824  1.0000
  H   H12       1.0  0.91305  0.81273  0.34864  1.0000
  C   C85       1.0  0.24862  0.15464  0.34879  1.0000
  C   C86       1.0  0.22703  0.11077  0.34818  1.0000
  C   C87       1.0  0.24859  0.08847  0.34658  1.0000
  C   C88       1.0  0.29246  0.11074  0.34562  1.0000
  C   C89       1.0  0.31475  0.15461  0.34644  1.0000
  C   C90       1.0  0.29249  0.17620  0.34795  1.0000
  H   H13       1.0  0.30834  0.09485  0.34389  1.0000
  H   H14       1.0  0.30839  0.20799  0.34828  1.0000
  H   H15       1.0  0.19525  0.09488  0.34863  1.0000
  C   C91       1.0  0.85333  0.08851  0.34878  1.0000
  C   C92       1.0  0.89720  0.11081  0.34820  1.0000
  C   C93       1.0  0.91950  0.15467  0.34656  1.0000
  C   C94       1.0  0.89721  0.17625  0.34555  1.0000
  C   C95       1.0  0.85334  0.15467  0.34635  1.0000
  C   C96       1.0  0.83176  0.11080  0.34790  1.0000
  H   H16       1.0  0.91309  0.20802  0.34379  1.0000
  H   H17       1.0  0.79997  0.09492  0.34820  1.0000
  H   H18       1.0  0.91309  0.09491  0.34868  1.0000
  C   C97       1.0  0.31460  0.54964  0.34662  1.0000
  C   C98       1.0  0.29213  0.57091  0.34409  1.0000
  C   C99       1.0  0.24838  0.54956  0.34364  1.0000
  C   C100      1.0  0.22673  0.50575  0.34501  1.0000
  C   C101      1.0  0.24852  0.48359  0.34758  1.0000
  C   C102      1.0  0.29248  0.50584  0.34897  1.0000
  H   H19       1.0  0.19497  0.48996  0.34443  1.0000
  H   H20       1.0  0.30850  0.49011  0.35145  1.0000
  H   H21       1.0  0.30804  0.60276  0.34312  1.0000
  C   C103      1.0  0.45839  0.75958  0.34637  1.0000
  C   C104      1.0  0.43703  0.71584  0.34393  1.0000
  C   C105      1.0  0.45829  0.69335  0.34350  1.0000
  C   C106      1.0  0.50210  0.71544  0.34510  1.0000
  C   C107      1.0  0.52435  0.75939  0.34749  1.0000
  C   C108      1.0  0.50218  0.78118  0.34874  1.0000
  H   H22       1.0  0.51783  0.69940  0.34476  1.0000
  H   H23       1.0  0.51797  0.81293  0.35118  1.0000
  H   H24       1.0  0.40517  0.69996  0.34309  1.0000
  C   C109      1.0  0.24846  0.69341  0.34650  1.0000
  C   C110      1.0  0.29219  0.71584  0.34418  1.0000
  C   C111      1.0  0.31463  0.75960  0.34377  1.0000
  C   C112      1.0  0.29250  0.78127  0.34526  1.0000
  C   C113      1.0  0.24854  0.75952  0.34749  1.0000
  C   C114      1.0  0.22680  0.71556  0.34862  1.0000
  H   H25       1.0  0.30850  0.81304  0.34491  1.0000
  H   H26       1.0  0.19505  0.69956  0.35086  1.0000
  H   H27       1.0  0.30812  0.69991  0.34329  1.0000
  C   C115      1.0  0.69972  0.45198  0.34664  1.0000
  C   C116      1.0  0.72219  0.43071  0.34414  1.0000
  C   C117      1.0  0.76594  0.45206  0.34387  1.0000
  C   C118      1.0  0.78757  0.49587  0.34531  1.0000
  C   C119      1.0  0.76578  0.51803  0.34765  1.0000
  C   C120      1.0  0.72182  0.49578  0.34881  1.0000
  H   H28       1.0  0.81934  0.51167  0.34488  1.0000
  H   H29       1.0  0.70579  0.51150  0.35105  1.0000
  H   H30       1.0  0.70628  0.39885  0.34306  1.0000
  C   C121      1.0  0.55602  0.24228  0.34657  1.0000
  C   C122      1.0  0.57726  0.28602  0.34395  1.0000
  C   C123      1.0  0.55590  0.30841  0.34371  1.0000
  C   C124      1.0  0.51209  0.28621  0.34516  1.0000
  C   C125      1.0  0.48994  0.24226  0.34770  1.0000
  C   C126      1.0  0.51221  0.22057  0.34901  1.0000
  H   H31       1.0  0.49628  0.30217  0.34462  1.0000
  H   H32       1.0  0.49651  0.18883  0.35143  1.0000
  H   H33       1.0  0.60912  0.30198  0.34283  1.0000
  C   C127      1.0  0.76583  0.30834  0.34668  1.0000
  C   C128      1.0  0.72209  0.28594  0.34447  1.0000
  C   C129      1.0  0.69962  0.24219  0.34386  1.0000
  C   C130      1.0  0.72173  0.22048  0.34504  1.0000
  C   C131      1.0  0.76568  0.24220  0.34738  1.0000
  C   C132      1.0  0.78745  0.28616  0.34872  1.0000
  H   H34       1.0  0.70570  0.18872  0.34454  1.0000
  H   H35       1.0  0.81920  0.30213  0.35107  1.0000
  H   H36       1.0  0.70619  0.30190  0.34374  1.0000
  C   C133      1.0  0.22650  0.43952  0.35008  1.0000
  C   C134      1.0  0.18301  0.35250  0.34400  1.0000
  N   N37       1.0  0.19362  0.37355  0.42370  1.0000
  C   C135      1.0  0.21469  0.41563  0.43049  1.0000
  C   C136      1.0  0.22283  0.43176  0.51104  1.0000
  N   N38       1.0  0.23013  0.44621  0.58195  1.0000
  C   C137      1.0  0.56842  0.78138  0.35003  1.0000
  C   C138      1.0  0.65544  0.82500  0.34400  1.0000
  N   N39       1.0  0.63438  0.81453  0.42368  1.0000
  C   C139      1.0  0.59230  0.79348  0.43045  1.0000
  C   C140      1.0  0.57616  0.78550  0.51099  1.0000
  N   N40       1.0  0.56170  0.77835  0.58189  1.0000
  C   C141      1.0  0.22651  0.78155  0.35001  1.0000
  C   C142      1.0  0.18294  0.82500  0.34397  1.0000
  N   N41       1.0  0.19341  0.81441  0.42365  1.0000
  C   C143      1.0  0.21445  0.79337  0.43043  1.0000
  C   C144      1.0  0.22245  0.78523  0.51098  1.0000
  N   N42       1.0  0.22961  0.77794  0.58187  1.0000
  C   C145      1.0  0.78779  0.56211  0.35012  1.0000
  C   C146      1.0  0.83124  0.64913  0.34401  1.0000
  N   N43       1.0  0.82065  0.62808  0.42371  1.0000
  C   C147      1.0  0.79961  0.58600  0.43051  1.0000
  C   C148      1.0  0.79148  0.56988  0.51107  1.0000
  N   N44       1.0  0.78419  0.55543  0.58199  1.0000
  C   C149      1.0  0.44587  0.22019  0.35018  1.0000
  C   C150      1.0  0.35885  0.17665  0.34406  1.0000
  N   N45       1.0  0.37989  0.18709  0.42376  1.0000
  C   C151      1.0  0.42197  0.20811  0.43057  1.0000
  C   C152      1.0  0.43809  0.21609  0.51113  1.0000
  N   N46       1.0  0.45254  0.22325  0.58205  1.0000
  C   C153      1.0  0.78768  0.22013  0.34991  1.0000
  C   C154      1.0  0.83128  0.17670  0.34391  1.0000
  N   N47       1.0  0.82081  0.18730  0.42358  1.0000
  C   C155      1.0  0.79977  0.20834  0.43033  1.0000
  C   C156      1.0  0.79178  0.21649  0.51088  1.0000
  N   N48       1.0  0.78462  0.22380  0.58177  1.0000
  N   N49       1.0  0.19335  0.20958  0.42415  1.0000
  C   C157      1.0  0.21441  0.18857  0.43118  1.0000
  C   C158      1.0  0.22232  0.18050  0.51187  1.0000
  N   N50       1.0  0.22939  0.17333  0.58297  1.0000
  N   N51       1.0  0.79836  0.97831  0.42416  1.0000
  C   C159      1.0  0.81939  0.02038  0.43118  1.0000
  C   C160      1.0  0.82746  0.03635  0.51188  1.0000
  N   N52       1.0  0.83463  0.05060  0.58298  1.0000
  N   N53       1.0  0.02965  0.81461  0.42414  1.0000
  C   C161      1.0  0.98757  0.79356  0.43118  1.0000
  C   C162      1.0  0.97160  0.78565  0.51186  1.0000
  N   N54       1.0  0.95736  0.77858  0.58297  1.0000
  N   N55       1.0  0.82089  0.79206  0.42415  1.0000
  C   C163      1.0  0.79986  0.81310  0.43118  1.0000
  C   C164      1.0  0.79195  0.82116  0.51188  1.0000
  N   N56       1.0  0.78488  0.82833  0.58298  1.0000
  N   N57       1.0  0.21591  0.02339  0.42415  1.0000
  C   C165      1.0  0.19486  0.98131  0.43119  1.0000
  C   C166      1.0  0.18680  0.96534  0.51188  1.0000
  N   N58       1.0  0.17963  0.95110  0.58298  1.0000
  N   N59       1.0  0.98458  0.18707  0.42414  1.0000
  C   C167      1.0  0.02666  0.20811  0.43118  1.0000
  C   C168      1.0  0.04263  0.21602  0.51187  1.0000
  N   N60       1.0  0.05687  0.22309  0.58297  1.0000
  N   N61       1.0  0.23038  0.59299  0.41997  1.0000
  C   C169      1.0  0.22875  0.62848  0.42818  1.0000
  C   C170      1.0  0.23381  0.64406  0.50909  1.0000
  N   N62       1.0  0.23855  0.65806  0.58020  1.0000
  N   N63       1.0  0.41496  0.63186  0.42066  1.0000
  C   C171      1.0  0.37948  0.59473  0.42876  1.0000
  C   C172      1.0  0.36393  0.58387  0.50961  1.0000
  N   N64       1.0  0.34997  0.57433  0.58069  1.0000
  N   N65       1.0  0.37618  0.77780  0.42070  1.0000
  C   C173      1.0  0.41334  0.77949  0.42862  1.0000
  C   C174      1.0  0.42413  0.77467  0.50943  1.0000
  N   N66       1.0  0.43362  0.77012  0.58046  1.0000
  N   N67       1.0  0.78397  0.40883  0.42057  1.0000
  C   C175      1.0  0.78555  0.37331  0.42875  1.0000
  C   C176      1.0  0.78057  0.35770  0.50959  1.0000
  N   N68       1.0  0.77591  0.34368  0.58066  1.0000
  N   N69       1.0  0.59928  0.36971  0.41996  1.0000
  C   C177      1.0  0.63482  0.40678  0.42818  1.0000
  C   C178      1.0  0.65042  0.41729  0.50909  1.0000
  N   N70       1.0  0.66441  0.42655  0.58020  1.0000
  N   N71       1.0  0.63821  0.22417  0.42074  1.0000
  C   C179      1.0  0.60111  0.22260  0.42862  1.0000
  C   C180      1.0  0.59024  0.22733  0.50943  1.0000
  N   N72       1.0  0.58068  0.23178  0.58047  1.0000
