data_image0
_chemical_formula_structural       C3H2CH2C3H2CH2C3H2CH2C6H3NHNHNHC6H3NHNHNHC3NOCHCH2C3NOCHCH2C3NOCHCH2C3H2CH2C3H2CH2C3H2CH2C6H3NHNHNHC6H3NHNHNHC3NOCHCH2C3NOCHCH2C3NOCHCH2C3H2CH2C3H2CH2C3H2CH2C6H3NHNHNHC6H3NHNHNHC3NOCHCH2C3NOCHCH2C3NOCHCH2C3H2CH2C3H2CH2C3H2CH2C6H3NHNHNHC6H3NHNHNHC3NOCHCH2C3NOCHCH2C3NOCHCH2
_chemical_formula_sum              "C156 H132 N36 O12"
_cell_length_a       43.6628
_cell_length_b       43.6628
_cell_length_c       15.0369
_cell_angle_alpha    90
_cell_angle_beta     90
_cell_angle_gamma    120

_space_group_name_H-M_alt    "P 1"
_space_group_IT_number       1

loop_
  _space_group_symop_operation_xyz
  'x, y, z'

loop_
  _atom_site_type_symbol
  _atom_site_label
  _atom_site_symmetry_multiplicity
  _atom_site_fract_x
  _atom_site_fract_y
  _atom_site_fract_z
  _atom_site_occupancy
  C   C1        1.0  0.21884  0.25692  0.34292  1.0000
  C   C2        1.0  0.22149  0.24223  0.26129  1.0000
  C   C3        1.0  0.24541  0.22971  0.25027  1.0000
  H   H1        1.0  0.24618  0.21937  0.18993  1.0000
  H   H2        1.0  0.20601  0.24073  0.20846  1.0000
  C   C4        1.0  0.19382  0.27067  0.34913  1.0000
  H   H3        1.0  0.16702  0.24900  0.33569  1.0000
  H   H4        1.0  0.20103  0.29035  0.29624  1.0000
  C   C5        1.0  0.24002  0.46131  0.34294  1.0000
  C   C6        1.0  0.25471  0.47865  0.26131  1.0000
  C   C7        1.0  0.26722  0.01509  0.25028  1.0000
  H   H5        1.0  0.27756  0.02619  0.18994  1.0000
  H   H6        1.0  0.25620  0.46466  0.20848  1.0000
  C   C8        1.0  0.22626  0.42254  0.34916  1.0000
  H   H7        1.0  0.24792  0.41740  0.33571  1.0000
  H   H8        1.0  0.20658  0.41007  0.29626  1.0000
  C   C9        1.0  0.03561  0.27810  0.34298  1.0000
  C   C10       1.0  0.01828  0.27546  0.26135  1.0000
  C   C11       1.0  0.48184  0.25153  0.25032  1.0000
  H   H9        1.0  0.47073  0.25077  0.18998  1.0000
  H   H10       1.0  0.03226  0.29095  0.20853  1.0000
  C   C12       1.0  0.07438  0.30312  0.34920  1.0000
  H   H11       1.0  0.07952  0.32992  0.33579  1.0000
  H   H12       1.0  0.08686  0.29593  0.29628  1.0000
  C   C13       1.0  0.17893  0.30917  0.43452  1.0000
  C   C14       1.0  0.14198  0.29527  0.43462  1.0000
  C   C15       1.0  0.12778  0.31800  0.43456  1.0000
  C   C16       1.0  0.15083  0.35495  0.43464  1.0000
  C   C17       1.0  0.18776  0.36915  0.43454  1.0000
  C   C18       1.0  0.20166  0.34610  0.43460  1.0000
  H   H13       1.0  0.14061  0.37154  0.43496  1.0000
  H   H14       1.0  0.22847  0.35631  0.43491  1.0000
  H   H15       1.0  0.12539  0.26846  0.43493  1.0000
  N   N1        1.0  0.19420  0.28734  0.43549  1.0000
  H   H16       1.0  0.18247  0.26849  0.48428  1.0000
  N   N2        1.0  0.20959  0.40625  0.43551  1.0000
  H   H17       1.0  0.22844  0.41337  0.48430  1.0000
  N   N3        1.0  0.09068  0.30273  0.43553  1.0000
  H   H18       1.0  0.08356  0.31445  0.48435  1.0000
  C   C19       1.0  0.31324  0.18460  0.22622  1.0000
  C   C20       1.0  0.35058  0.20261  0.22602  1.0000
  C   C21       1.0  0.36891  0.18369  0.22622  1.0000
  C   C22       1.0  0.34958  0.14635  0.22602  1.0000
  C   C23       1.0  0.31233  0.12802  0.22622  1.0000
  C   C24       1.0  0.29432  0.14735  0.22602  1.0000
  H   H19       1.0  0.36277  0.13249  0.22622  1.0000
  H   H20       1.0  0.26726  0.13416  0.22621  1.0000
  H   H21       1.0  0.36445  0.22967  0.22622  1.0000
  N   N4        1.0  0.29392  0.20262  0.22680  1.0000
  H   H22       1.0  0.30329  0.22136  0.17729  1.0000
  N   N5        1.0  0.29431  0.09069  0.22680  1.0000
  H   H23       1.0  0.27557  0.08131  0.17728  1.0000
  N   N6        1.0  0.40624  0.20301  0.22681  1.0000
  H   H24       1.0  0.41562  0.19365  0.17729  1.0000
  C   C25       1.0  0.26786  0.23148  0.32062  1.0000
  C   C26       1.0  0.26488  0.24584  0.40214  1.0000
  C   C27       1.0  0.24116  0.25814  0.41272  1.0000
  N   N7        1.0  0.24487  0.26977  0.49614  1.0000
  O   O1        1.0  0.28348  0.24945  0.47803  1.0000
  C   C28       1.0  0.26967  0.26434  0.53317  1.0000
  H   H25       1.0  0.27766  0.27088  0.59762  1.0000
  C   C29       1.0  0.29370  0.21882  0.31356  1.0000
  H   H26       1.0  0.28713  0.19902  0.36599  1.0000
  H   H27       1.0  0.32013  0.24104  0.32715  1.0000
  C   C30       1.0  0.26545  0.03576  0.32062  1.0000
  C   C31       1.0  0.25109  0.01843  0.40214  1.0000
  C   C32       1.0  0.23879  0.48241  0.41274  1.0000
  N   N8        1.0  0.22717  0.47449  0.49616  1.0000
  O   O2        1.0  0.24748  0.03342  0.47804  1.0000
  C   C33       1.0  0.23260  0.50473  0.53319  1.0000
  H   H28       1.0  0.22607  0.50618  0.59763  1.0000
  C   C34       1.0  0.27811  0.07427  0.31356  1.0000
  H   H29       1.0  0.29791  0.08750  0.36599  1.0000
  H   H30       1.0  0.25589  0.07848  0.32713  1.0000
  C   C35       1.0  0.46117  0.22907  0.32064  1.0000
  C   C36       1.0  0.47850  0.23203  0.40215  1.0000
  C   C37       1.0  0.01452  0.25577  0.41276  1.0000
  N   N9        1.0  0.02244  0.25205  0.49616  1.0000
  O   O3        1.0  0.46352  0.21343  0.47803  1.0000
  C   C38       1.0  0.99221  0.22723  0.53318  1.0000
  H   H31       1.0  0.99076  0.21923  0.59762  1.0000
  C   C39       1.0  0.42266  0.20322  0.31357  1.0000
  H   H32       1.0  0.40943  0.20978  0.36601  1.0000
  H   H33       1.0  0.41846  0.17679  0.32712  1.0000
  C   C40       1.0  0.21884  0.75692  0.34292  1.0000
  C   C41       1.0  0.22149  0.74223  0.26129  1.0000
  C   C42       1.0  0.24541  0.72971  0.25027  1.0000
  H   H34       1.0  0.24618  0.71937  0.18993  1.0000
  H   H35       1.0  0.20601  0.74073  0.20846  1.0000
  C   C43       1.0  0.19382  0.77067  0.34913  1.0000
  H   H36       1.0  0.16702  0.74900  0.33569  1.0000
  H   H37       1.0  0.20103  0.79035  0.29624  1.0000
  C   C44       1.0  0.24002  0.96131  0.34294  1.0000
  C   C45       1.0  0.25471  0.97865  0.26131  1.0000
  C   C46       1.0  0.26722  0.51509  0.25028  1.0000
  H   H38       1.0  0.27756  0.52619  0.18994  1.0000
  H   H39       1.0  0.25620  0.96466  0.20848  1.0000
  C   C47       1.0  0.22626  0.92254  0.34916  1.0000
  H   H40       1.0  0.24792  0.91740  0.33571  1.0000
  H   H41       1.0  0.20658  0.91007  0.29626  1.0000
  C   C48       1.0  0.03561  0.77810  0.34298  1.0000
  C   C49       1.0  0.01828  0.77546  0.26135  1.0000
  C   C50       1.0  0.48184  0.75153  0.25032  1.0000
  H   H42       1.0  0.47073  0.75077  0.18998  1.0000
  H   H43       1.0  0.03226  0.79095  0.20853  1.0000
  C   C51       1.0  0.07438  0.80312  0.34920  1.0000
  H   H44       1.0  0.07952  0.82992  0.33579  1.0000
  H   H45       1.0  0.08686  0.79593  0.29628  1.0000
  C   C52       1.0  0.17893  0.80917  0.43452  1.0000
  C   C53       1.0  0.14198  0.79527  0.43462  1.0000
  C   C54       1.0  0.12778  0.81800  0.43456  1.0000
  C   C55       1.0  0.15083  0.85495  0.43464  1.0000
  C   C56       1.0  0.18776  0.86915  0.43454  1.0000
  C   C57       1.0  0.20166  0.84610  0.43460  1.0000
  H   H46       1.0  0.14061  0.87154  0.43496  1.0000
  H   H47       1.0  0.22847  0.85632  0.43491  1.0000
  H   H48       1.0  0.12539  0.76846  0.43493  1.0000
  N   N10       1.0  0.19420  0.78734  0.43549  1.0000
  H   H49       1.0  0.18247  0.76849  0.48428  1.0000
  N   N11       1.0  0.20959  0.90625  0.43551  1.0000
  H   H50       1.0  0.22844  0.91337  0.48430  1.0000
  N   N12       1.0  0.09068  0.80273  0.43553  1.0000
  H   H51       1.0  0.08356  0.81445  0.48435  1.0000
  C   C58       1.0  0.31324  0.68460  0.22622  1.0000
  C   C59       1.0  0.35058  0.70261  0.22602  1.0000
  C   C60       1.0  0.36891  0.68369  0.22622  1.0000
  C   C61       1.0  0.34958  0.64635  0.22602  1.0000
  C   C62       1.0  0.31233  0.62802  0.22622  1.0000
  C   C63       1.0  0.29432  0.64735  0.22602  1.0000
  H   H52       1.0  0.36277  0.63249  0.22622  1.0000
  H   H53       1.0  0.26726  0.63416  0.22621  1.0000
  H   H54       1.0  0.36445  0.72967  0.22622  1.0000
  N   N13       1.0  0.29392  0.70262  0.22680  1.0000
  H   H55       1.0  0.30329  0.72136  0.17729  1.0000
  N   N14       1.0  0.29431  0.59069  0.22680  1.0000
  H   H56       1.0  0.27557  0.58131  0.17728  1.0000
  N   N15       1.0  0.40624  0.70301  0.22681  1.0000
  H   H57       1.0  0.41562  0.69365  0.17729  1.0000
  C   C64       1.0  0.26786  0.73148  0.32062  1.0000
  C   C65       1.0  0.26488  0.74584  0.40214  1.0000
  C   C66       1.0  0.24116  0.75814  0.41272  1.0000
  N   N16       1.0  0.24487  0.76977  0.49614  1.0000
  O   O4        1.0  0.28348  0.74945  0.47803  1.0000
  C   C67       1.0  0.26967  0.76434  0.53317  1.0000
  H   H58       1.0  0.27766  0.77088  0.59762  1.0000
  C   C68       1.0  0.29370  0.71882  0.31356  1.0000
  H   H59       1.0  0.28713  0.69902  0.36599  1.0000
  H   H60       1.0  0.32013  0.74104  0.32715  1.0000
  C   C69       1.0  0.26545  0.53576  0.32062  1.0000
  C   C70       1.0  0.25109  0.51843  0.40214  1.0000
  C   C71       1.0  0.23879  0.98241  0.41274  1.0000
  N   N17       1.0  0.22717  0.97449  0.49616  1.0000
  O   O5        1.0  0.24748  0.53341  0.47804  1.0000
  C   C72       1.0  0.23260  0.00473  0.53319  1.0000
  H   H61       1.0  0.22607  0.00618  0.59763  1.0000
  C   C73       1.0  0.27811  0.57427  0.31356  1.0000
  H   H62       1.0  0.29790  0.58750  0.36599  1.0000
  H   H63       1.0  0.25589  0.57848  0.32713  1.0000
  C   C74       1.0  0.46117  0.72907  0.32064  1.0000
  C   C75       1.0  0.47851  0.73203  0.40215  1.0000
  C   C76       1.0  0.01452  0.75576  0.41276  1.0000
  N   N18       1.0  0.02244  0.75205  0.49616  1.0000
  O   O6        1.0  0.46352  0.71343  0.47803  1.0000
  C   C77       1.0  0.99221  0.72723  0.53318  1.0000
  H   H64       1.0  0.99076  0.71923  0.59762  1.0000
  C   C78       1.0  0.42266  0.70322  0.31357  1.0000
  H   H65       1.0  0.40943  0.70978  0.36601  1.0000
  H   H66       1.0  0.41846  0.67679  0.32712  1.0000
  C   C79       1.0  0.71884  0.25692  0.34292  1.0000
  C   C80       1.0  0.72149  0.24223  0.26129  1.0000
  C   C81       1.0  0.74542  0.22971  0.25027  1.0000
  H   H67       1.0  0.74618  0.21937  0.18993  1.0000
  H   H68       1.0  0.70601  0.24073  0.20846  1.0000
  C   C82       1.0  0.69383  0.27067  0.34913  1.0000
  H   H69       1.0  0.66702  0.24900  0.33569  1.0000
  H   H70       1.0  0.70103  0.29035  0.29624  1.0000
  C   C83       1.0  0.74002  0.46131  0.34294  1.0000
  C   C84       1.0  0.75471  0.47865  0.26131  1.0000
  C   C85       1.0  0.76722  0.01509  0.25028  1.0000
  H   H71       1.0  0.77756  0.02619  0.18994  1.0000
  H   H72       1.0  0.75620  0.46466  0.20848  1.0000
  C   C86       1.0  0.72626  0.42254  0.34916  1.0000
  H   H73       1.0  0.74792  0.41740  0.33571  1.0000
  H   H74       1.0  0.70658  0.41007  0.29626  1.0000
  C   C87       1.0  0.53561  0.27810  0.34298  1.0000
  C   C88       1.0  0.51828  0.27546  0.26135  1.0000
  C   C89       1.0  0.98184  0.25153  0.25032  1.0000
  H   H75       1.0  0.97073  0.25077  0.18998  1.0000
  H   H76       1.0  0.53226  0.29095  0.20853  1.0000
  C   C90       1.0  0.57438  0.30312  0.34920  1.0000
  H   H77       1.0  0.57952  0.32992  0.33579  1.0000
  H   H78       1.0  0.58686  0.29593  0.29628  1.0000
  C   C91       1.0  0.67893  0.30917  0.43452  1.0000
  C   C92       1.0  0.64198  0.29527  0.43462  1.0000
  C   C93       1.0  0.62778  0.31800  0.43456  1.0000
  C   C94       1.0  0.65083  0.35495  0.43464  1.0000
  C   C95       1.0  0.68776  0.36915  0.43454  1.0000
  C   C96       1.0  0.70166  0.34610  0.43460  1.0000
  H   H79       1.0  0.64061  0.37154  0.43496  1.0000
  H   H80       1.0  0.72847  0.35631  0.43491  1.0000
  H   H81       1.0  0.62539  0.26846  0.43493  1.0000
  N   N19       1.0  0.69420  0.28734  0.43549  1.0000
  H   H82       1.0  0.68247  0.26849  0.48428  1.0000
  N   N20       1.0  0.70959  0.40625  0.43551  1.0000
  H   H83       1.0  0.72844  0.41337  0.48430  1.0000
  N   N21       1.0  0.59068  0.30273  0.43553  1.0000
  H   H84       1.0  0.58356  0.31445  0.48435  1.0000
  C   C97       1.0  0.81324  0.18460  0.22622  1.0000
  C   C98       1.0  0.85058  0.20261  0.22602  1.0000
  C   C99       1.0  0.86891  0.18369  0.22622  1.0000
  C   C100      1.0  0.84958  0.14635  0.22602  1.0000
  C   C101      1.0  0.81233  0.12802  0.22622  1.0000
  C   C102      1.0  0.79432  0.14735  0.22602  1.0000
  H   H85       1.0  0.86277  0.13249  0.22622  1.0000
  H   H86       1.0  0.76726  0.13416  0.22621  1.0000
  H   H87       1.0  0.86445  0.22967  0.22622  1.0000
  N   N22       1.0  0.79392  0.20262  0.22680  1.0000
  H   H88       1.0  0.80329  0.22136  0.17729  1.0000
  N   N23       1.0  0.79431  0.09069  0.22680  1.0000
  H   H89       1.0  0.77557  0.08131  0.17728  1.0000
  N   N24       1.0  0.90624  0.20301  0.22681  1.0000
  H   H90       1.0  0.91562  0.19365  0.17729  1.0000
  C   C103      1.0  0.76786  0.23148  0.32062  1.0000
  C   C104      1.0  0.76488  0.24584  0.40214  1.0000
  C   C105      1.0  0.74116  0.25814  0.41272  1.0000
  N   N25       1.0  0.74487  0.26977  0.49614  1.0000
  O   O7        1.0  0.78348  0.24945  0.47803  1.0000
  C   C106      1.0  0.76967  0.26434  0.53317  1.0000
  H   H91       1.0  0.77767  0.27088  0.59762  1.0000
  C   C107      1.0  0.79370  0.21882  0.31356  1.0000
  H   H92       1.0  0.78713  0.19902  0.36599  1.0000
  H   H93       1.0  0.82013  0.24104  0.32715  1.0000
  C   C108      1.0  0.76545  0.03576  0.32062  1.0000
  C   C109      1.0  0.75109  0.01843  0.40214  1.0000
  C   C110      1.0  0.73879  0.48241  0.41274  1.0000
  N   N26       1.0  0.72717  0.47449  0.49616  1.0000
  O   O8        1.0  0.74748  0.03342  0.47804  1.0000
  C   C111      1.0  0.73260  0.50473  0.53319  1.0000
  H   H94       1.0  0.72606  0.50618  0.59763  1.0000
  C   C112      1.0  0.77811  0.07427  0.31356  1.0000
  H   H95       1.0  0.79791  0.08750  0.36599  1.0000
  H   H96       1.0  0.75589  0.07848  0.32713  1.0000
  C   C113      1.0  0.96117  0.22907  0.32064  1.0000
  C   C114      1.0  0.97850  0.23203  0.40215  1.0000
  C   C115      1.0  0.51452  0.25577  0.41276  1.0000
  N   N27       1.0  0.52244  0.25205  0.49616  1.0000
  O   O9        1.0  0.96352  0.21343  0.47803  1.0000
  C   C116      1.0  0.49221  0.22723  0.53318  1.0000
  H   H97       1.0  0.49076  0.21923  0.59762  1.0000
  C   C117      1.0  0.92266  0.20322  0.31357  1.0000
  H   H98       1.0  0.90943  0.20978  0.36601  1.0000
  H   H99       1.0  0.91846  0.17679  0.32712  1.0000
  C   C118      1.0  0.71884  0.75692  0.34292  1.0000
  C   C119      1.0  0.72149  0.74223  0.26129  1.0000
  C   C120      1.0  0.74542  0.72971  0.25027  1.0000
  H   H100      1.0  0.74618  0.71937  0.18993  1.0000
  H   H101      1.0  0.70601  0.74073  0.20846  1.0000
  C   C121      1.0  0.69383  0.77067  0.34913  1.0000
  H   H102      1.0  0.66702  0.74900  0.33569  1.0000
  H   H103      1.0  0.70103  0.79035  0.29624  1.0000
  C   C122      1.0  0.74002  0.96131  0.34294  1.0000
  C   C123      1.0  0.75471  0.97865  0.26131  1.0000
  C   C124      1.0  0.76722  0.51509  0.25028  1.0000
  H   H104      1.0  0.77756  0.52619  0.18994  1.0000
  H   H105      1.0  0.75619  0.96466  0.20848  1.0000
  C   C125      1.0  0.72626  0.92254  0.34916  1.0000
  H   H106      1.0  0.74792  0.91740  0.33571  1.0000
  H   H107      1.0  0.70658  0.91007  0.29626  1.0000
  C   C126      1.0  0.53561  0.77810  0.34298  1.0000
  C   C127      1.0  0.51828  0.77546  0.26135  1.0000
  C   C128      1.0  0.98184  0.75153  0.25032  1.0000
  H   H108      1.0  0.97073  0.75077  0.18998  1.0000
  H   H109      1.0  0.53226  0.79095  0.20853  1.0000
  C   C129      1.0  0.57438  0.80312  0.34920  1.0000
  H   H110      1.0  0.57952  0.82992  0.33579  1.0000
  H   H111      1.0  0.58686  0.79593  0.29628  1.0000
  C   C130      1.0  0.67893  0.80917  0.43452  1.0000
  C   C131      1.0  0.64198  0.79527  0.43462  1.0000
  C   C132      1.0  0.62778  0.81800  0.43456  1.0000
  C   C133      1.0  0.65083  0.85495  0.43464  1.0000
  C   C134      1.0  0.68776  0.86915  0.43454  1.0000
  C   C135      1.0  0.70166  0.84610  0.43460  1.0000
  H   H112      1.0  0.64061  0.87154  0.43496  1.0000
  H   H113      1.0  0.72847  0.85632  0.43491  1.0000
  H   H114      1.0  0.62539  0.76846  0.43493  1.0000
  N   N28       1.0  0.69420  0.78734  0.43549  1.0000
  H   H115      1.0  0.68247  0.76849  0.48428  1.0000
  N   N29       1.0  0.70959  0.90625  0.43551  1.0000
  H   H116      1.0  0.72844  0.91337  0.48430  1.0000
  N   N30       1.0  0.59068  0.80273  0.43553  1.0000
  H   H117      1.0  0.58356  0.81445  0.48435  1.0000
  C   C136      1.0  0.81324  0.68460  0.22622  1.0000
  C   C137      1.0  0.85058  0.70261  0.22602  1.0000
  C   C138      1.0  0.86891  0.68369  0.22622  1.0000
  C   C139      1.0  0.84958  0.64635  0.22602  1.0000
  C   C140      1.0  0.81233  0.62802  0.22622  1.0000
  C   C141      1.0  0.79432  0.64735  0.22602  1.0000
  H   H118      1.0  0.86277  0.63249  0.22622  1.0000
  H   H119      1.0  0.76726  0.63416  0.22621  1.0000
  H   H120      1.0  0.86445  0.72967  0.22622  1.0000
  N   N31       1.0  0.79392  0.70262  0.22680  1.0000
  H   H121      1.0  0.80329  0.72136  0.17729  1.0000
  N   N32       1.0  0.79431  0.59069  0.22680  1.0000
  H   H122      1.0  0.77557  0.58131  0.17728  1.0000
  N   N33       1.0  0.90624  0.70301  0.22681  1.0000
  H   H123      1.0  0.91562  0.69365  0.17729  1.0000
  C   C142      1.0  0.76786  0.73148  0.32062  1.0000
  C   C143      1.0  0.76488  0.74584  0.40214  1.0000
  C   C144      1.0  0.74116  0.75814  0.41272  1.0000
  N   N34       1.0  0.74487  0.76977  0.49614  1.0000
  O   O10       1.0  0.78348  0.74945  0.47803  1.0000
  C   C145      1.0  0.76967  0.76434  0.53317  1.0000
  H   H124      1.0  0.77767  0.77088  0.59762  1.0000
  C   C146      1.0  0.79370  0.71882  0.31356  1.0000
  H   H125      1.0  0.78713  0.69902  0.36599  1.0000
  H   H126      1.0  0.82013  0.74104  0.32715  1.0000
  C   C147      1.0  0.76545  0.53576  0.32062  1.0000
  C   C148      1.0  0.75109  0.51843  0.40214  1.0000
  C   C149      1.0  0.73879  0.98241  0.41274  1.0000
  N   N35       1.0  0.72717  0.97449  0.49616  1.0000
  O   O11       1.0  0.74748  0.53341  0.47804  1.0000
  C   C150      1.0  0.73260  0.00473  0.53319  1.0000
  H   H127      1.0  0.72607  0.00618  0.59763  1.0000
  C   C151      1.0  0.77811  0.57427  0.31356  1.0000
  H   H128      1.0  0.79791  0.58750  0.36599  1.0000
  H   H129      1.0  0.75589  0.57848  0.32713  1.0000
  C   C152      1.0  0.96117  0.72907  0.32064  1.0000
  C   C153      1.0  0.97850  0.73203  0.40215  1.0000
  C   C154      1.0  0.51452  0.75576  0.41276  1.0000
  N   N36       1.0  0.52244  0.75205  0.49616  1.0000
  O   O12       1.0  0.96352  0.71343  0.47803  1.0000
  C   C155      1.0  0.49221  0.72723  0.53318  1.0000
  H   H130      1.0  0.49075  0.71923  0.59762  1.0000
  C   C156      1.0  0.92266  0.70322  0.31357  1.0000
  H   H131      1.0  0.90943  0.70978  0.36601  1.0000
  H   H132      1.0  0.91846  0.67679  0.32712  1.0000
