data_image0
_chemical_formula_structural       N2C2NC4H2NO2CHC2NC4H2NO2CHC8HC7HCH4N2C2HC2NHNO2CHC2HC2NHNO2CHN2C2NC4H2NO2CHC2NC4H2NO2CHC8HC7HCH4N2C2HC2NHNO2CHC2HC2NHNO2CHN2C2NC4H2NO2CHC2NC4H2NO2CHC8HC7HCH4N2C2HC2NHNO2CHC2HC2NHNO2CHN2C2NC4H2NO2CHC2NC4H2NO2CHC8HC7HCH4N2C2HC2NHNO2CHC2HC2NHNO2CH
_chemical_formula_sum              "N48 C160 H72 O32"
_cell_length_a       39.5034
_cell_length_b       39.5034
_cell_length_c       15.0981
_cell_angle_alpha    90
_cell_angle_beta     90
_cell_angle_gamma    90

_space_group_name_H-M_alt    "P 1"
_space_group_IT_number       1

loop_
  _space_group_symop_operation_xyz
  'x, y, z'

loop_
  _atom_site_type_symbol
  _atom_site_label
  _atom_site_symmetry_multiplicity
  _atom_site_fract_x
  _atom_site_fract_y
  _atom_site_fract_z
  _atom_site_occupancy
  N   N1        1.0  0.02788  0.10524  0.32929  1.0000
  N   N2        1.0  0.47118  0.39377  0.31572  1.0000
  C   C1        1.0  0.49389  0.33820  0.29041  1.0000
  C   C2        1.0  0.51861  0.31783  0.24980  1.0000
  N   N3        1.0  0.51961  0.28440  0.26793  1.0000
  C   C3        1.0  0.99838  0.26743  0.32323  1.0000
  C   C4        1.0  0.00358  0.23205  0.33395  1.0000
  C   C5        1.0  0.02985  0.21272  0.29310  1.0000
  C   C6        1.0  0.03077  0.17732  0.30746  1.0000
  H   H1        1.0  0.04915  0.16346  0.27631  1.0000
  H   H2        1.0  0.53646  0.32775  0.20819  1.0000
  N   N4        1.0  0.05468  0.22775  0.23791  1.0000
  O   O1        1.0  0.05348  0.21646  0.16012  1.0000
  O   O2        1.0  0.08409  0.22374  0.26789  1.0000
  C   C7        1.0  0.49442  0.37341  0.27784  1.0000
  H   H3        1.0  0.51272  0.38385  0.23851  1.0000
  C   C8        1.0  0.16176  0.49993  0.25765  1.0000
  C   C9        1.0  0.18342  0.47250  0.23972  1.0000
  N   N5        1.0  0.21643  0.47458  0.26236  1.0000
  C   C10       1.0  0.23200  0.00175  0.30000  1.0000
  C   C11       1.0  0.26683  0.99868  0.32262  1.0000
  C   C12       1.0  0.28751  0.96970  0.30636  1.0000
  C   C13       1.0  0.32205  0.97081  0.33123  1.0000
  H   H4        1.0  0.33694  0.95032  0.31703  1.0000
  H   H5        1.0  0.17448  0.45017  0.21470  1.0000
  N   N6        1.0  0.27479  0.94028  0.26420  1.0000
  O   O3        1.0  0.27709  0.91459  0.31294  1.0000
  O   O4        1.0  0.28955  0.93446  0.19201  1.0000
  C   C14       1.0  0.12660  0.49640  0.24675  1.0000
  H   H6        1.0  0.11696  0.47411  0.22359  1.0000
  C   C15       1.0  0.01245  0.01200  0.31522  1.0000
  C   C16       1.0  0.04684  0.50175  0.30456  1.0000
  C   C17       1.0  0.07231  0.02651  0.28980  1.0000
  C   C18       1.0  0.06382  0.06096  0.29655  1.0000
  C   C19       1.0  0.03058  0.07159  0.31415  1.0000
  C   C20       1.0  0.00428  0.04712  0.31713  1.0000
  C   C21       1.0  0.05454  0.46720  0.31628  1.0000
  C   C22       1.0  0.46981  0.05633  0.31489  1.0000
  H   H7        1.0  0.08262  0.07882  0.29128  1.0000
  C   C23       1.0  0.48625  0.48724  0.32480  1.0000
  C   C24       1.0  0.49450  0.45212  0.32378  1.0000
  C   C25       1.0  0.46825  0.42759  0.32778  1.0000
  C   C26       1.0  0.43489  0.43828  0.34349  1.0000
  C   C27       1.0  0.42626  0.47275  0.34839  1.0000
  C   C28       1.0  0.45182  0.99752  0.33466  1.0000
  C   C29       1.0  0.02901  0.44301  0.32599  1.0000
  H   H8        1.0  0.41610  0.42040  0.34877  1.0000
  C   C30       1.0  0.44423  0.03213  0.32326  1.0000
  H   H9        1.0  0.03643  0.41890  0.33998  1.0000
  H   H10       1.0  0.07880  0.45907  0.32343  1.0000
  H   H11       1.0  0.42003  0.04037  0.31575  1.0000
  H   H12       1.0  0.46253  0.08057  0.30175  1.0000
  N   N7        1.0  0.10549  0.02132  0.27254  1.0000
  N   N8        1.0  0.39286  0.47792  0.36264  1.0000
  C   C31       1.0  0.97250  0.28690  0.36529  1.0000
  C   C32       1.0  0.97065  0.32204  0.34751  1.0000
  H   H13       1.0  0.95253  0.33603  0.37929  1.0000
  C   C33       1.0  0.00635  0.16080  0.36034  1.0000
  C   C34       1.0  0.98164  0.18110  0.40122  1.0000
  N   N9        1.0  0.98136  0.21475  0.38582  1.0000
  H   H14       1.0  0.96299  0.17094  0.43993  1.0000
  N   N10       1.0  0.94926  0.27233  0.42578  1.0000
  O   O5        1.0  0.91915  0.27539  0.40007  1.0000
  O   O6        1.0  0.95200  0.28485  0.50200  1.0000
  C   C35       1.0  0.00483  0.12543  0.36857  1.0000
  H   H15       1.0  0.98598  0.11478  0.40567  1.0000
  C   C36       1.0  0.21150  0.03095  0.31507  1.0000
  C   C37       1.0  0.17665  0.02942  0.29355  1.0000
  H   H16       1.0  0.16190  0.05008  0.30711  1.0000
  C   C38       1.0  0.33651  0.99975  0.37120  1.0000
  C   C39       1.0  0.31477  0.02714  0.38872  1.0000
  N   N11       1.0  0.28201  0.02536  0.36355  1.0000
  H   H17       1.0  0.32340  0.04907  0.41672  1.0000
  N   N12       1.0  0.22476  0.06114  0.35201  1.0000
  O   O7        1.0  0.21101  0.06839  0.42466  1.0000
  O   O8        1.0  0.22177  0.08585  0.30012  1.0000
  C   C40       1.0  0.37147  0.00287  0.38656  1.0000
  H   H18       1.0  0.38085  0.02493  0.41184  1.0000
  N   N13       1.0  0.02788  0.60524  0.32929  1.0000
  N   N14       1.0  0.47118  0.89377  0.31572  1.0000
  C   C41       1.0  0.49389  0.83821  0.29041  1.0000
  C   C42       1.0  0.51861  0.81783  0.24980  1.0000
  N   N15       1.0  0.51961  0.78440  0.26793  1.0000
  C   C43       1.0  0.99838  0.76742  0.32323  1.0000
  C   C44       1.0  0.00358  0.73205  0.33395  1.0000
  C   C45       1.0  0.02985  0.71272  0.29310  1.0000
  C   C46       1.0  0.03077  0.67732  0.30746  1.0000
  H   H19       1.0  0.04915  0.66346  0.27631  1.0000
  H   H20       1.0  0.53646  0.82775  0.20819  1.0000
  N   N16       1.0  0.05468  0.72775  0.23791  1.0000
  O   O9        1.0  0.05348  0.71646  0.16012  1.0000
  O   O10       1.0  0.08409  0.72374  0.26789  1.0000
  C   C47       1.0  0.49442  0.87340  0.27784  1.0000
  H   H21       1.0  0.51272  0.88385  0.23851  1.0000
  C   C48       1.0  0.16176  0.99993  0.25765  1.0000
  C   C49       1.0  0.18342  0.97250  0.23972  1.0000
  N   N17       1.0  0.21643  0.97458  0.26236  1.0000
  C   C50       1.0  0.23200  0.50175  0.30000  1.0000
  C   C51       1.0  0.26683  0.49868  0.32262  1.0000
  C   C52       1.0  0.28751  0.46970  0.30636  1.0000
  C   C53       1.0  0.32205  0.47081  0.33123  1.0000
  H   H22       1.0  0.33694  0.45032  0.31703  1.0000
  H   H23       1.0  0.17448  0.95017  0.21470  1.0000
  N   N18       1.0  0.27479  0.44028  0.26420  1.0000
  O   O11       1.0  0.27709  0.41459  0.31294  1.0000
  O   O12       1.0  0.28955  0.43446  0.19201  1.0000
  C   C54       1.0  0.12660  0.99640  0.24675  1.0000
  H   H24       1.0  0.11696  0.97411  0.22359  1.0000
  C   C55       1.0  0.01245  0.51200  0.31522  1.0000
  C   C56       1.0  0.04684  0.00175  0.30456  1.0000
  C   C57       1.0  0.07231  0.52651  0.28980  1.0000
  C   C58       1.0  0.06382  0.56095  0.29655  1.0000
  C   C59       1.0  0.03058  0.57159  0.31415  1.0000
  C   C60       1.0  0.00428  0.54712  0.31713  1.0000
  C   C61       1.0  0.05454  0.96720  0.31628  1.0000
  C   C62       1.0  0.46981  0.55633  0.31489  1.0000
  H   H25       1.0  0.08262  0.57882  0.29128  1.0000
  C   C63       1.0  0.48625  0.98724  0.32480  1.0000
  C   C64       1.0  0.49450  0.95212  0.32378  1.0000
  C   C65       1.0  0.46825  0.92759  0.32778  1.0000
  C   C66       1.0  0.43489  0.93828  0.34349  1.0000
  C   C67       1.0  0.42626  0.97274  0.34839  1.0000
  C   C68       1.0  0.45182  0.49752  0.33466  1.0000
  C   C69       1.0  0.02901  0.94301  0.32599  1.0000
  H   H26       1.0  0.41610  0.92040  0.34877  1.0000
  C   C70       1.0  0.44423  0.53213  0.32326  1.0000
  H   H27       1.0  0.03643  0.91890  0.33998  1.0000
  H   H28       1.0  0.07880  0.95907  0.32343  1.0000
  H   H29       1.0  0.42003  0.54037  0.31575  1.0000
  H   H30       1.0  0.46253  0.58057  0.30175  1.0000
  N   N19       1.0  0.10549  0.52131  0.27254  1.0000
  N   N20       1.0  0.39286  0.97792  0.36264  1.0000
  C   C71       1.0  0.97250  0.78690  0.36529  1.0000
  C   C72       1.0  0.97065  0.82204  0.34751  1.0000
  H   H31       1.0  0.95253  0.83603  0.37929  1.0000
  C   C73       1.0  0.00635  0.66080  0.36034  1.0000
  C   C74       1.0  0.98164  0.68110  0.40122  1.0000
  N   N21       1.0  0.98136  0.71475  0.38582  1.0000
  H   H32       1.0  0.96299  0.67093  0.43993  1.0000
  N   N22       1.0  0.94926  0.77233  0.42578  1.0000
  O   O13       1.0  0.91915  0.77539  0.40007  1.0000
  O   O14       1.0  0.95200  0.78485  0.50200  1.0000
  C   C75       1.0  0.00483  0.62543  0.36857  1.0000
  H   H33       1.0  0.98598  0.61478  0.40567  1.0000
  C   C76       1.0  0.21150  0.53095  0.31507  1.0000
  C   C77       1.0  0.17665  0.52942  0.29355  1.0000
  H   H34       1.0  0.16190  0.55008  0.30711  1.0000
  C   C78       1.0  0.33651  0.49975  0.37120  1.0000
  C   C79       1.0  0.31477  0.52714  0.38872  1.0000
  N   N23       1.0  0.28201  0.52536  0.36355  1.0000
  H   H35       1.0  0.32340  0.54907  0.41672  1.0000
  N   N24       1.0  0.22476  0.56114  0.35201  1.0000
  O   O15       1.0  0.21101  0.56839  0.42466  1.0000
  O   O16       1.0  0.22177  0.58585  0.30012  1.0000
  C   C80       1.0  0.37147  0.50287  0.38656  1.0000
  H   H36       1.0  0.38085  0.52493  0.41184  1.0000
  N   N25       1.0  0.52788  0.10524  0.32929  1.0000
  N   N26       1.0  0.97118  0.39377  0.31572  1.0000
  C   C81       1.0  0.99389  0.33820  0.29041  1.0000
  C   C82       1.0  0.01861  0.31783  0.24980  1.0000
  N   N27       1.0  0.01961  0.28440  0.26793  1.0000
  C   C83       1.0  0.49838  0.26743  0.32323  1.0000
  C   C84       1.0  0.50358  0.23205  0.33395  1.0000
  C   C85       1.0  0.52985  0.21272  0.29310  1.0000
  C   C86       1.0  0.53077  0.17732  0.30746  1.0000
  H   H37       1.0  0.54915  0.16346  0.27631  1.0000
  H   H38       1.0  0.03646  0.32775  0.20819  1.0000
  N   N28       1.0  0.55467  0.22775  0.23791  1.0000
  O   O17       1.0  0.55348  0.21646  0.16012  1.0000
  O   O18       1.0  0.58409  0.22374  0.26789  1.0000
  C   C87       1.0  0.99442  0.37341  0.27784  1.0000
  H   H39       1.0  0.01272  0.38385  0.23851  1.0000
  C   C88       1.0  0.66176  0.49993  0.25765  1.0000
  C   C89       1.0  0.68341  0.47250  0.23972  1.0000
  N   N29       1.0  0.71643  0.47458  0.26236  1.0000
  C   C90       1.0  0.73200  0.00175  0.30000  1.0000
  C   C91       1.0  0.76683  0.99868  0.32262  1.0000
  C   C92       1.0  0.78751  0.96970  0.30636  1.0000
  C   C93       1.0  0.82205  0.97081  0.33123  1.0000
  H   H40       1.0  0.83694  0.95032  0.31703  1.0000
  H   H41       1.0  0.67448  0.45017  0.21470  1.0000
  N   N30       1.0  0.77479  0.94028  0.26420  1.0000
  O   O19       1.0  0.77710  0.91459  0.31294  1.0000
  O   O20       1.0  0.78955  0.93446  0.19201  1.0000
  C   C94       1.0  0.62660  0.49640  0.24675  1.0000
  H   H42       1.0  0.61696  0.47411  0.22359  1.0000
  C   C95       1.0  0.51245  0.01200  0.31522  1.0000
  C   C96       1.0  0.54684  0.50175  0.30456  1.0000
  C   C97       1.0  0.57231  0.02651  0.28980  1.0000
  C   C98       1.0  0.56382  0.06096  0.29655  1.0000
  C   C99       1.0  0.53058  0.07159  0.31415  1.0000
  C   C100      1.0  0.50428  0.04712  0.31713  1.0000
  C   C101      1.0  0.55454  0.46720  0.31628  1.0000
  C   C102      1.0  0.96981  0.05633  0.31489  1.0000
  H   H43       1.0  0.58262  0.07882  0.29128  1.0000
  C   C103      1.0  0.98625  0.48724  0.32480  1.0000
  C   C104      1.0  0.99449  0.45212  0.32378  1.0000
  C   C105      1.0  0.96825  0.42759  0.32778  1.0000
  C   C106      1.0  0.93489  0.43828  0.34349  1.0000
  C   C107      1.0  0.92626  0.47275  0.34839  1.0000
  C   C108      1.0  0.95182  0.99752  0.33466  1.0000
  C   C109      1.0  0.52901  0.44301  0.32599  1.0000
  H   H44       1.0  0.91609  0.42040  0.34877  1.0000
  C   C110      1.0  0.94422  0.03213  0.32326  1.0000
  H   H45       1.0  0.53643  0.41890  0.33998  1.0000
  H   H46       1.0  0.57880  0.45907  0.32343  1.0000
  H   H47       1.0  0.92003  0.04037  0.31575  1.0000
  H   H48       1.0  0.96253  0.08057  0.30175  1.0000
  N   N31       1.0  0.60549  0.02132  0.27254  1.0000
  N   N32       1.0  0.89286  0.47792  0.36264  1.0000
  C   C111      1.0  0.47250  0.28690  0.36529  1.0000
  C   C112      1.0  0.47065  0.32204  0.34751  1.0000
  H   H49       1.0  0.45253  0.33603  0.37929  1.0000
  C   C113      1.0  0.50635  0.16080  0.36034  1.0000
  C   C114      1.0  0.48164  0.18110  0.40122  1.0000
  N   N33       1.0  0.48136  0.21475  0.38582  1.0000
  H   H50       1.0  0.46299  0.17094  0.43993  1.0000
  N   N34       1.0  0.44926  0.27233  0.42578  1.0000
  O   O21       1.0  0.41915  0.27539  0.40007  1.0000
  O   O22       1.0  0.45200  0.28485  0.50200  1.0000
  C   C115      1.0  0.50483  0.12543  0.36857  1.0000
  H   H51       1.0  0.48598  0.11478  0.40567  1.0000
  C   C116      1.0  0.71150  0.03095  0.31507  1.0000
  C   C117      1.0  0.67665  0.02942  0.29355  1.0000
  H   H52       1.0  0.66191  0.05008  0.30711  1.0000
  C   C118      1.0  0.83651  0.99975  0.37120  1.0000
  C   C119      1.0  0.81477  0.02714  0.38872  1.0000
  N   N35       1.0  0.78201  0.02536  0.36355  1.0000
  H   H53       1.0  0.82340  0.04907  0.41672  1.0000
  N   N36       1.0  0.72476  0.06114  0.35201  1.0000
  O   O23       1.0  0.71100  0.06839  0.42466  1.0000
  O   O24       1.0  0.72177  0.08585  0.30012  1.0000
  C   C120      1.0  0.87147  0.00287  0.38656  1.0000
  H   H54       1.0  0.88085  0.02493  0.41184  1.0000
  N   N37       1.0  0.52788  0.60524  0.32929  1.0000
  N   N38       1.0  0.97118  0.89377  0.31572  1.0000
  C   C121      1.0  0.99389  0.83821  0.29041  1.0000
  C   C122      1.0  0.01861  0.81783  0.24980  1.0000
  N   N39       1.0  0.01961  0.78440  0.26793  1.0000
  C   C123      1.0  0.49838  0.76742  0.32323  1.0000
  C   C124      1.0  0.50358  0.73205  0.33395  1.0000
  C   C125      1.0  0.52985  0.71272  0.29310  1.0000
  C   C126      1.0  0.53077  0.67732  0.30746  1.0000
  H   H55       1.0  0.54915  0.66346  0.27631  1.0000
  H   H56       1.0  0.03646  0.82775  0.20819  1.0000
  N   N40       1.0  0.55467  0.72775  0.23791  1.0000
  O   O25       1.0  0.55348  0.71646  0.16012  1.0000
  O   O26       1.0  0.58409  0.72374  0.26789  1.0000
  C   C127      1.0  0.99442  0.87340  0.27784  1.0000
  H   H57       1.0  0.01272  0.88385  0.23851  1.0000
  C   C128      1.0  0.66176  0.99993  0.25765  1.0000
  C   C129      1.0  0.68341  0.97250  0.23972  1.0000
  N   N41       1.0  0.71643  0.97458  0.26236  1.0000
  C   C130      1.0  0.73200  0.50175  0.30000  1.0000
  C   C131      1.0  0.76683  0.49868  0.32262  1.0000
  C   C132      1.0  0.78751  0.46970  0.30636  1.0000
  C   C133      1.0  0.82205  0.47081  0.33123  1.0000
  H   H58       1.0  0.83694  0.45032  0.31703  1.0000
  H   H59       1.0  0.67448  0.95017  0.21470  1.0000
  N   N42       1.0  0.77479  0.44028  0.26420  1.0000
  O   O27       1.0  0.77710  0.41459  0.31294  1.0000
  O   O28       1.0  0.78955  0.43446  0.19201  1.0000
  C   C134      1.0  0.62660  0.99640  0.24675  1.0000
  H   H60       1.0  0.61696  0.97411  0.22359  1.0000
  C   C135      1.0  0.51245  0.51200  0.31522  1.0000
  C   C136      1.0  0.54684  0.00175  0.30456  1.0000
  C   C137      1.0  0.57231  0.52651  0.28980  1.0000
  C   C138      1.0  0.56382  0.56095  0.29655  1.0000
  C   C139      1.0  0.53058  0.57159  0.31415  1.0000
  C   C140      1.0  0.50428  0.54712  0.31713  1.0000
  C   C141      1.0  0.55454  0.96720  0.31628  1.0000
  C   C142      1.0  0.96981  0.55633  0.31489  1.0000
  H   H61       1.0  0.58262  0.57882  0.29128  1.0000
  C   C143      1.0  0.98625  0.98724  0.32480  1.0000
  C   C144      1.0  0.99449  0.95212  0.32378  1.0000
  C   C145      1.0  0.96825  0.92759  0.32778  1.0000
  C   C146      1.0  0.93489  0.93828  0.34349  1.0000
  C   C147      1.0  0.92626  0.97274  0.34839  1.0000
  C   C148      1.0  0.95182  0.49752  0.33466  1.0000
  C   C149      1.0  0.52901  0.94301  0.32599  1.0000
  H   H62       1.0  0.91609  0.92040  0.34877  1.0000
  C   C150      1.0  0.94422  0.53213  0.32326  1.0000
  H   H63       1.0  0.53643  0.91890  0.33998  1.0000
  H   H64       1.0  0.57880  0.95907  0.32343  1.0000
  H   H65       1.0  0.92003  0.54037  0.31575  1.0000
  H   H66       1.0  0.96253  0.58057  0.30175  1.0000
  N   N43       1.0  0.60549  0.52131  0.27254  1.0000
  N   N44       1.0  0.89286  0.97792  0.36264  1.0000
  C   C151      1.0  0.47250  0.78690  0.36529  1.0000
  C   C152      1.0  0.47065  0.82204  0.34751  1.0000
  H   H67       1.0  0.45253  0.83603  0.37929  1.0000
  C   C153      1.0  0.50635  0.66080  0.36034  1.0000
  C   C154      1.0  0.48164  0.68110  0.40122  1.0000
  N   N45       1.0  0.48136  0.71475  0.38582  1.0000
  H   H68       1.0  0.46299  0.67093  0.43993  1.0000
  N   N46       1.0  0.44926  0.77233  0.42578  1.0000
  O   O29       1.0  0.41915  0.77539  0.40007  1.0000
  O   O30       1.0  0.45200  0.78485  0.50200  1.0000
  C   C155      1.0  0.50483  0.62543  0.36857  1.0000
  H   H69       1.0  0.48598  0.61478  0.40567  1.0000
  C   C156      1.0  0.71150  0.53095  0.31507  1.0000
  C   C157      1.0  0.67665  0.52942  0.29355  1.0000
  H   H70       1.0  0.66191  0.55008  0.30711  1.0000
  C   C158      1.0  0.83651  0.49975  0.37120  1.0000
  C   C159      1.0  0.81477  0.52714  0.38872  1.0000
  N   N47       1.0  0.78201  0.52536  0.36355  1.0000
  H   H71       1.0  0.82340  0.54907  0.41672  1.0000
  N   N48       1.0  0.72476  0.56114  0.35201  1.0000
  O   O31       1.0  0.71100  0.56839  0.42466  1.0000
  O   O32       1.0  0.72177  0.58585  0.30012  1.0000
  C   C160      1.0  0.87147  0.50287  0.38656  1.0000
  H   H72       1.0  0.88085  0.52493  0.41184  1.0000
