data_image0
_chemical_formula_structural       C3HC2HC2HC2H2CNC3H2C3NO2H3C4HC3H2C3HC3H3C3HC3H3C2H2C2H2C2H2C2H2C2H2C2H2C2H2C2H2C2H2C2H2C3NH2C3NC3NH4C3NC3NH4C3HNO2C8H3NO2C3H2C8H3NO2C8H3NO2C8H3NO2
_chemical_formula_sum              "C108 H66 N12 O12"
_cell_length_a       31.9003
_cell_length_b       31.9002
_cell_length_c       14.7594
_cell_angle_alpha    90
_cell_angle_beta     90
_cell_angle_gamma    120

_space_group_name_H-M_alt    "P 1"
_space_group_IT_number       1

loop_
  _space_group_symop_operation_xyz
  'x, y, z'

loop_
  _atom_site_type_symbol
  _atom_site_label
  _atom_site_symmetry_multiplicity
  _atom_site_fract_x
  _atom_site_fract_y
  _atom_site_fract_z
  _atom_site_occupancy
  C   C1        1.0  0.03912  0.52165  0.35130  1.0000
  C   C2        1.0  0.11859  0.59991  0.35659  1.0000
  C   C3        1.0  0.06720  0.57325  0.35705  1.0000
  H   H1        1.0  0.05039  0.59311  0.36346  1.0000
  C   C4        1.0  0.06742  0.49833  0.34546  1.0000
  C   C5        1.0  0.11883  0.52321  0.34663  1.0000
  H   H2        1.0  0.05074  0.46171  0.33843  1.0000
  C   C6        1.0  0.17193  0.50145  0.26216  1.0000
  C   C7        1.0  0.21114  0.49274  0.26561  1.0000
  H   H3        1.0  0.16757  0.51714  0.20507  1.0000
  C   C8        1.0  0.19506  0.72687  0.27676  1.0000
  C   C9        1.0  0.15661  0.67857  0.28009  1.0000
  H   H4        1.0  0.20329  0.74354  0.21498  1.0000
  H   H5        1.0  0.14044  0.66174  0.22057  1.0000
  C   C10       1.0  0.14505  0.57477  0.35245  1.0000
  N   N1        1.0  0.19474  0.59969  0.35443  1.0000
  C   C11       1.0  0.19302  0.46859  0.42177  1.0000
  C   C12       1.0  0.15463  0.47868  0.41958  1.0000
  C   C13       1.0  0.14430  0.49674  0.34039  1.0000
  H   H6        1.0  0.19966  0.45727  0.48203  1.0000
  H   H7        1.0  0.13694  0.47668  0.47871  1.0000
  C   C14       1.0  0.14394  0.65194  0.36180  1.0000
  C   C15       1.0  0.16917  0.67613  0.44177  1.0000
  C   C16       1.0  0.20848  0.72445  0.43653  1.0000
  N   N2        1.0  0.15692  0.64982  0.52415  1.0000
  O   O1        1.0  0.19159  0.64609  0.55521  1.0000
  O   O2        1.0  0.14396  0.66953  0.58290  1.0000
  H   H8        1.0  0.21369  0.63470  0.35398  1.0000
  H   H9        1.0  0.23285  0.50232  0.20967  1.0000
  H   H10       1.0  0.21369  0.58369  0.35846  1.0000
  C   C17       1.0  0.26973  0.47748  0.35344  1.0000
  C   C18       1.0  0.22422  0.47771  0.34636  1.0000
  C   C19       1.0  0.22410  0.75060  0.35369  1.0000
  C   C20       1.0  0.26979  0.79615  0.34659  1.0000
  H   H11       1.0  0.22831  0.73875  0.49413  1.0000
  C   C21       1.0  0.98537  0.49470  0.35129  1.0000
  C   C22       1.0  0.95729  0.44309  0.35712  1.0000
  C   C23       1.0  0.90590  0.41642  0.35657  1.0000
  H   H12       1.0  0.97410  0.42324  0.36360  1.0000
  H   H13       1.0  0.81080  0.38162  0.35367  1.0000
  C   C24       1.0  0.52568  0.49472  0.35134  1.0000
  C   C25       1.0  0.57730  0.51824  0.35689  1.0000
  C   C26       1.0  0.60395  0.49351  0.35645  1.0000
  H   H14       1.0  0.59718  0.55491  0.36302  1.0000
  C   C27       1.0  0.49875  0.52155  0.35132  1.0000
  C   C28       1.0  0.42048  0.52277  0.35636  1.0000
  C   C29       1.0  0.44713  0.49803  0.35684  1.0000
  H   H15       1.0  0.42725  0.46136  0.36301  1.0000
  H   H16       1.0  0.38571  0.58309  0.35350  1.0000
  H   H17       1.0  0.63872  0.43318  0.35379  1.0000
  C   C30       1.0  0.52562  0.03503  0.35132  1.0000
  C   C31       1.0  0.50208  0.06311  0.35693  1.0000
  C   C32       1.0  0.52680  0.11449  0.35648  1.0000
  H   H18       1.0  0.46542  0.04630  0.36324  1.0000
  C   C33       1.0  0.49881  0.98128  0.35136  1.0000
  C   C34       1.0  0.49763  0.90182  0.35666  1.0000
  C   C35       1.0  0.52235  0.95320  0.35705  1.0000
  H   H19       1.0  0.55902  0.97001  0.36332  1.0000
  H   H20       1.0  0.43734  0.80671  0.35415  1.0000
  H   H21       1.0  0.58710  0.20960  0.35367  1.0000
  C   C36       1.0  0.29345  0.47218  0.27649  1.0000
  C   C37       1.0  0.34174  0.48199  0.27978  1.0000
  H   H22       1.0  0.27676  0.46375  0.21473  1.0000
  H   H23       1.0  0.35855  0.48275  0.22019  1.0000
  C   C38       1.0  0.54812  0.82532  0.27681  1.0000
  C   C39       1.0  0.53830  0.86379  0.28018  1.0000
  H   H24       1.0  0.55650  0.81706  0.21501  1.0000
  H   H25       1.0  0.53750  0.87983  0.22059  1.0000
  C   C40       1.0  0.51908  0.67461  0.26233  1.0000
  C   C41       1.0  0.52770  0.72250  0.26591  1.0000
  H   H26       1.0  0.50329  0.65460  0.20527  1.0000
  H   H27       1.0  0.51811  0.73463  0.20998  1.0000
  C   C42       1.0  0.34585  0.84840  0.26238  1.0000
  C   C43       1.0  0.29792  0.80920  0.26583  1.0000
  H   H28       1.0  0.36584  0.85278  0.20520  1.0000
  H   H29       1.0  0.28576  0.78747  0.20993  1.0000
  C   C44       1.0  0.73097  0.54409  0.27646  1.0000
  C   C45       1.0  0.68266  0.53419  0.27982  1.0000
  H   H30       1.0  0.74764  0.55256  0.21467  1.0000
  H   H31       1.0  0.66583  0.53353  0.22029  1.0000
  C   C46       1.0  0.85257  0.51493  0.26191  1.0000
  C   C47       1.0  0.81334  0.52361  0.26547  1.0000
  H   H32       1.0  0.85699  0.49941  0.20465  1.0000
  H   H33       1.0  0.79173  0.51425  0.20942  1.0000
  C   C48       1.0  0.47621  0.19091  0.27672  1.0000
  C   C49       1.0  0.48603  0.15244  0.27998  1.0000
  H   H34       1.0  0.46779  0.19918  0.21496  1.0000
  H   H35       1.0  0.48679  0.13639  0.22038  1.0000
  C   C50       1.0  0.50543  0.34169  0.26240  1.0000
  C   C51       1.0  0.49672  0.29376  0.26585  1.0000
  H   H36       1.0  0.52107  0.36172  0.20528  1.0000
  H   H37       1.0  0.50628  0.28164  0.20989  1.0000
  C   C52       1.0  0.82941  0.28946  0.27687  1.0000
  C   C53       1.0  0.86790  0.33774  0.28024  1.0000
  H   H38       1.0  0.82116  0.27280  0.21508  1.0000
  H   H39       1.0  0.88398  0.35456  0.22065  1.0000
  C   C54       1.0  0.67866  0.16783  0.26232  1.0000
  C   C55       1.0  0.72656  0.20710  0.26591  1.0000
  H   H40       1.0  0.65866  0.16362  0.20525  1.0000
  H   H41       1.0  0.73869  0.22883  0.21000  1.0000
  C   C56       1.0  0.87943  0.44156  0.35230  1.0000
  C   C57       1.0  0.90566  0.49313  0.34649  1.0000
  C   C58       1.0  0.95707  0.51800  0.34536  1.0000
  N   N3        1.0  0.82975  0.41662  0.35415  1.0000
  H   H42       1.0  0.81078  0.43261  0.35804  1.0000
  H   H43       1.0  0.97375  0.55463  0.33829  1.0000
  C   C59       1.0  0.57880  0.44190  0.35247  1.0000
  C   C60       1.0  0.52722  0.41656  0.34682  1.0000
  C   C61       1.0  0.50236  0.44310  0.34572  1.0000
  N   N4        1.0  0.60371  0.41713  0.35442  1.0000
  C   C62       1.0  0.52207  0.57317  0.34568  1.0000
  C   C63       1.0  0.49721  0.59971  0.34674  1.0000
  C   C64       1.0  0.44563  0.57438  0.35233  1.0000
  N   N5        1.0  0.42072  0.59914  0.35418  1.0000
  H   H44       1.0  0.43671  0.63410  0.35826  1.0000
  H   H45       1.0  0.58771  0.38218  0.35854  1.0000
  H   H46       1.0  0.46573  0.42315  0.33887  1.0000
  H   H47       1.0  0.55871  0.59312  0.33890  1.0000
  C   C65       1.0  0.57841  0.14097  0.35239  1.0000
  C   C66       1.0  0.60376  0.11475  0.34670  1.0000
  C   C67       1.0  0.57723  0.06334  0.34559  1.0000
  N   N6        1.0  0.60316  0.19066  0.35430  1.0000
  C   C68       1.0  0.44720  0.95296  0.34562  1.0000
  C   C69       1.0  0.42067  0.90155  0.34680  1.0000
  C   C70       1.0  0.44603  0.87534  0.35261  1.0000
  N   N7        1.0  0.42128  0.82566  0.35468  1.0000
  H   H48       1.0  0.38633  0.80669  0.35874  1.0000
  H   H49       1.0  0.63811  0.20962  0.35828  1.0000
  H   H50       1.0  0.59719  0.04667  0.33872  1.0000
  H   H51       1.0  0.42724  0.96963  0.33863  1.0000
  C   C71       1.0  0.36846  0.49611  0.36136  1.0000
  C   C72       1.0  0.34428  0.49717  0.44137  1.0000
  C   C73       1.0  0.29595  0.48811  0.43622  1.0000
  H   H52       1.0  0.28167  0.49366  0.49382  1.0000
  N   N8        1.0  0.37059  0.51122  0.52376  1.0000
  O   O3        1.0  0.37430  0.54961  0.55484  1.0000
  O   O4        1.0  0.35091  0.47855  0.58251  1.0000
  C   C74       1.0  0.52432  0.87650  0.36185  1.0000
  C   C75       1.0  0.52333  0.85124  0.44177  1.0000
  C   C76       1.0  0.53237  0.81196  0.43658  1.0000
  C   C77       1.0  0.54291  0.79633  0.35376  1.0000
  C   C78       1.0  0.54274  0.75062  0.34666  1.0000
  C   C79       1.0  0.55175  0.72846  0.42209  1.0000
  C   C80       1.0  0.54171  0.68000  0.41984  1.0000
  C   C81       1.0  0.52368  0.65165  0.34060  1.0000
  H   H53       1.0  0.56314  0.74644  0.48234  1.0000
  H   H54       1.0  0.54367  0.66428  0.47896  1.0000
  H   H55       1.0  0.52689  0.79217  0.49421  1.0000
  N   N9        1.0  0.50934  0.86352  0.52419  1.0000
  O   O5        1.0  0.47096  0.82886  0.55536  1.0000
  O   O6        1.0  0.54204  0.87652  0.58286  1.0000
  C   C82       1.0  0.29191  0.82734  0.42202  1.0000
  C   C83       1.0  0.34040  0.86572  0.41986  1.0000
  C   C84       1.0  0.36872  0.87604  0.34060  1.0000
  H   H56       1.0  0.27389  0.82077  0.48222  1.0000
  H   H57       1.0  0.35606  0.88356  0.47889  1.0000
  C   C85       1.0  0.65596  0.52017  0.36145  1.0000
  C   C86       1.0  0.68021  0.51916  0.44139  1.0000
  C   C87       1.0  0.72854  0.52821  0.43616  1.0000
  C   C88       1.0  0.75473  0.53881  0.35336  1.0000
  C   C89       1.0  0.80027  0.53864  0.34624  1.0000
  C   C90       1.0  0.83142  0.54760  0.42170  1.0000
  C   C91       1.0  0.86978  0.53746  0.41947  1.0000
  C   C92       1.0  0.88017  0.51957  0.34010  1.0000
  H   H58       1.0  0.82477  0.55887  0.48201  1.0000
  H   H59       1.0  0.88747  0.53946  0.47860  1.0000
  H   H60       1.0  0.74284  0.52271  0.49380  1.0000
  N   N10       1.0  0.65396  0.50518  0.52384  1.0000
  O   O7        1.0  0.65026  0.46681  0.55501  1.0000
  O   O8        1.0  0.67368  0.53789  0.58250  1.0000
  C   C93       1.0  0.50012  0.13984  0.36159  1.0000
  C   C94       1.0  0.50119  0.16505  0.44162  1.0000
  C   C95       1.0  0.49214  0.20434  0.43646  1.0000
  C   C96       1.0  0.48151  0.21993  0.35369  1.0000
  C   C97       1.0  0.48173  0.26566  0.34661  1.0000
  C   C98       1.0  0.47264  0.28777  0.42204  1.0000
  C   C99       1.0  0.48273  0.33625  0.41986  1.0000
  C   C100      1.0  0.50076  0.36463  0.34063  1.0000
  H   H61       1.0  0.46135  0.26981  0.48232  1.0000
  H   H62       1.0  0.48076  0.35195  0.47900  1.0000
  H   H63       1.0  0.49768  0.22416  0.49407  1.0000
  N   N11       1.0  0.51525  0.15279  0.52399  1.0000
  O   O9        1.0  0.55364  0.18747  0.55507  1.0000
  O   O10       1.0  0.48258  0.13980  0.58274  1.0000
  C   C101      1.0  0.88056  0.36441  0.36191  1.0000
  C   C102      1.0  0.85526  0.34021  0.44181  1.0000
  C   C103      1.0  0.81596  0.29189  0.43660  1.0000
  C   C104      1.0  0.80037  0.26570  0.35380  1.0000
  C   C105      1.0  0.75467  0.22017  0.34668  1.0000
  C   C106      1.0  0.73250  0.18899  0.42208  1.0000
  C   C107      1.0  0.68405  0.15055  0.41981  1.0000
  C   C108      1.0  0.65570  0.14023  0.34056  1.0000
  H   H64       1.0  0.75048  0.19558  0.48233  1.0000
  H   H65       1.0  0.66833  0.13286  0.47892  1.0000
  H   H66       1.0  0.79612  0.27760  0.49419  1.0000
  N   N12       1.0  0.86748  0.36652  0.52418  1.0000
  O   O11       1.0  0.83280  0.37027  0.55516  1.0000
  O   O12       1.0  0.88041  0.34682  0.58301  1.0000
