data_image0
_chemical_formula_structural       C2HC2H2C2H2C4H2C3H2C3H2C2HC2H2C2H2C4H2C3H2C3H2C2H3CHC3H2C4H3CHC3H2C6HC2H2C2H2C6HC6H2C4H2C4HC2H2C2H2C6HC6H2C4H2C2HC2HC2H2C2H2C4H2CHC3H2C4H2C4H2C2HC2HC2H2C2H2C4H2CHC3H2C4H2C4H2C2HC2HC2HC2HC2HC2HC2H2C2H2C2H2C2H2C2H2C2H2C4H2C4H2C4H2C4H2C4H2C4H2C4H2C4H2C4H2C4H2C4H2C4H2C2HC2HC2HC2HC2HC2HC2H2C2H2C2H2C2H2C2H2C2H2C4H2C4H2C4H2C4H2C4H2C4H2C4H2C4H2C4H2C4H2C4H2C4H2
_chemical_formula_sum              "C288 H168"
_cell_length_a       46.7487
_cell_length_b       46.7488
_cell_length_c       14.8143
_cell_angle_alpha    90
_cell_angle_beta     90
_cell_angle_gamma    120

_space_group_name_H-M_alt    "P 1"
_space_group_IT_number       1

loop_
  _space_group_symop_operation_xyz
  'x, y, z'

loop_
  _atom_site_type_symbol
  _atom_site_label
  _atom_site_symmetry_multiplicity
  _atom_site_fract_x
  _atom_site_fract_y
  _atom_site_fract_z
  _atom_site_occupancy
  C   C1        1.0  0.04651  0.30062  0.34610  1.0000
  C   C2        1.0  0.08146  0.31850  0.34624  1.0000
  H   H1        1.0  0.03553  0.31468  0.34616  1.0000
  C   C3        1.0  0.11616  0.25006  0.26472  1.0000
  C   C4        1.0  0.14628  0.24997  0.26453  1.0000
  H   H2        1.0  0.10767  0.25377  0.20460  1.0000
  H   H3        1.0  0.15848  0.25379  0.20439  1.0000
  C   C5        1.0  0.14639  0.39938  0.26488  1.0000
  C   C6        1.0  0.11625  0.36921  0.26492  1.0000
  H   H4        1.0  0.15865  0.40768  0.20475  1.0000
  H   H5        1.0  0.10791  0.35696  0.20479  1.0000
  C   C7        1.0  0.02732  0.26521  0.34602  1.0000
  C   C8        1.0  0.09848  0.30079  0.34649  1.0000
  C   C9        1.0  0.08147  0.26608  0.34627  1.0000
  C   C10       1.0  0.04652  0.24900  0.34602  1.0000
  H   H6        1.0  0.12386  0.31349  0.34670  1.0000
  H   H7        1.0  0.03553  0.22396  0.34591  1.0000
  C   C11       1.0  0.14654  0.25034  0.42783  1.0000
  C   C12       1.0  0.11634  0.25025  0.42807  1.0000
  C   C13       1.0  0.10063  0.25033  0.34649  1.0000
  H   H8        1.0  0.10804  0.25419  0.48820  1.0000
  H   H9        1.0  0.15882  0.25418  0.48786  1.0000
  C   C14       1.0  0.11624  0.36928  0.42814  1.0000
  C   C15       1.0  0.14638  0.39945  0.42808  1.0000
  C   C16       1.0  0.10060  0.35339  0.34660  1.0000
  H   H10       1.0  0.15866  0.40781  0.48813  1.0000
  H   H11       1.0  0.10790  0.35706  0.48828  1.0000
  C   C17       1.0  0.04651  0.80062  0.34610  1.0000
  C   C18       1.0  0.08147  0.81850  0.34624  1.0000
  H   H12       1.0  0.03553  0.81468  0.34616  1.0000
  C   C19       1.0  0.11616  0.75006  0.26472  1.0000
  C   C20       1.0  0.14628  0.74997  0.26453  1.0000
  H   H13       1.0  0.10767  0.75377  0.20460  1.0000
  H   H14       1.0  0.15848  0.75379  0.20439  1.0000
  C   C21       1.0  0.14639  0.89938  0.26488  1.0000
  C   C22       1.0  0.11625  0.86920  0.26492  1.0000
  H   H15       1.0  0.15865  0.90768  0.20475  1.0000
  H   H16       1.0  0.10791  0.85696  0.20479  1.0000
  C   C23       1.0  0.02732  0.76521  0.34602  1.0000
  C   C24       1.0  0.09848  0.80079  0.34649  1.0000
  C   C25       1.0  0.08147  0.76607  0.34627  1.0000
  C   C26       1.0  0.04652  0.74900  0.34602  1.0000
  H   H17       1.0  0.12386  0.81349  0.34670  1.0000
  H   H18       1.0  0.03554  0.72396  0.34591  1.0000
  C   C27       1.0  0.14654  0.75034  0.42783  1.0000
  C   C28       1.0  0.11634  0.75025  0.42807  1.0000
  C   C29       1.0  0.10063  0.75033  0.34649  1.0000
  H   H19       1.0  0.10804  0.75419  0.48820  1.0000
  H   H20       1.0  0.15882  0.75418  0.48786  1.0000
  C   C30       1.0  0.11624  0.86928  0.42814  1.0000
  C   C31       1.0  0.14638  0.89945  0.42808  1.0000
  C   C32       1.0  0.10060  0.85339  0.34660  1.0000
  H   H21       1.0  0.15866  0.90781  0.48813  1.0000
  H   H22       1.0  0.10790  0.85706  0.48828  1.0000
  C   C33       1.0  0.21501  0.24899  0.34591  1.0000
  C   C34       1.0  0.19714  0.26607  0.34619  1.0000
  H   H23       1.0  0.20096  0.22395  0.34564  1.0000
  H   H24       1.0  0.22713  0.03243  0.34595  1.0000
  H   H25       1.0  0.22710  0.19783  0.34639  1.0000
  C   C35       1.0  0.21485  0.30079  0.34632  1.0000
  H   H26       1.0  0.20217  0.31348  0.34639  1.0000
  C   C36       1.0  0.21488  0.41722  0.34627  1.0000
  C   C37       1.0  0.19717  0.43422  0.34624  1.0000
  C   C38       1.0  0.21504  0.46917  0.34630  1.0000
  H   H27       1.0  0.20219  0.39184  0.34635  1.0000
  H   H28       1.0  0.20098  0.48016  0.34643  1.0000
  C   C39       1.0  0.16225  0.25034  0.34607  1.0000
  C   C40       1.0  0.16229  0.41507  0.34647  1.0000
  C   C41       1.0  0.21501  0.74899  0.34591  1.0000
  C   C42       1.0  0.19714  0.76607  0.34619  1.0000
  H   H29       1.0  0.20096  0.72395  0.34564  1.0000
  H   H30       1.0  0.22713  0.53243  0.34595  1.0000
  H   H31       1.0  0.22710  0.69783  0.34639  1.0000
  C   C43       1.0  0.21485  0.80079  0.34632  1.0000
  H   H32       1.0  0.20217  0.81348  0.34639  1.0000
  C   C44       1.0  0.21488  0.91722  0.34627  1.0000
  C   C45       1.0  0.19717  0.93422  0.34624  1.0000
  C   C46       1.0  0.21504  0.96917  0.34630  1.0000
  H   H33       1.0  0.20219  0.89184  0.34635  1.0000
  H   H34       1.0  0.20098  0.98016  0.34643  1.0000
  C   C47       1.0  0.16225  0.75034  0.34607  1.0000
  C   C48       1.0  0.16229  0.91507  0.34647  1.0000
  C   C49       1.0  0.26925  0.07837  0.34613  1.0000
  C   C50       1.0  0.25217  0.04342  0.34607  1.0000
  C   C51       1.0  0.26667  0.46918  0.34616  1.0000
  C   C52       1.0  0.24959  0.43423  0.34618  1.0000
  H   H35       1.0  0.29171  0.48016  0.34610  1.0000
  C   C53       1.0  0.26547  0.36922  0.26492  1.0000
  C   C54       1.0  0.26556  0.39942  0.26481  1.0000
  H   H36       1.0  0.26165  0.35701  0.20477  1.0000
  H   H37       1.0  0.26166  0.40777  0.20470  1.0000
  C   C55       1.0  0.25323  0.14335  0.26486  1.0000
  C   C56       1.0  0.25317  0.11316  0.26468  1.0000
  H   H38       1.0  0.25696  0.15557  0.20476  1.0000
  H   H39       1.0  0.25702  0.10481  0.20452  1.0000
  C   C57       1.0  0.26836  0.24729  0.34608  1.0000
  C   C58       1.0  0.25215  0.21188  0.34628  1.0000
  C   C59       1.0  0.26922  0.19401  0.34649  1.0000
  C   C60       1.0  0.25043  0.26521  0.34608  1.0000
  C   C61       1.0  0.24957  0.31849  0.34634  1.0000
  C   C62       1.0  0.26665  0.30062  0.34633  1.0000
  H   H40       1.0  0.29169  0.31467  0.34654  1.0000
  C   C63       1.0  0.26839  0.02422  0.34622  1.0000
  C   C64       1.0  0.25045  0.48837  0.34622  1.0000
  C   C65       1.0  0.26560  0.39946  0.42800  1.0000
  C   C66       1.0  0.26560  0.36930  0.42804  1.0000
  C   C67       1.0  0.26532  0.35337  0.34651  1.0000
  C   C68       1.0  0.26534  0.41509  0.34641  1.0000
  H   H41       1.0  0.26168  0.35705  0.48813  1.0000
  H   H42       1.0  0.26167  0.40781  0.48805  1.0000
  C   C69       1.0  0.25343  0.11320  0.42789  1.0000
  C   C70       1.0  0.25332  0.14330  0.42819  1.0000
  C   C71       1.0  0.25345  0.15911  0.34664  1.0000
  C   C72       1.0  0.25352  0.09751  0.34618  1.0000
  H   H43       1.0  0.25723  0.15551  0.48836  1.0000
  H   H44       1.0  0.25726  0.10475  0.48793  1.0000
  C   C73       1.0  0.26925  0.57836  0.34613  1.0000
  C   C74       1.0  0.25217  0.54342  0.34607  1.0000
  C   C75       1.0  0.26667  0.96918  0.34616  1.0000
  C   C76       1.0  0.24959  0.93423  0.34618  1.0000
  H   H45       1.0  0.29171  0.98016  0.34610  1.0000
  C   C77       1.0  0.26547  0.86922  0.26492  1.0000
  C   C78       1.0  0.26556  0.89942  0.26481  1.0000
  H   H46       1.0  0.26166  0.85701  0.20477  1.0000
  H   H47       1.0  0.26166  0.90777  0.20470  1.0000
  C   C79       1.0  0.25323  0.64334  0.26486  1.0000
  C   C80       1.0  0.25318  0.61316  0.26468  1.0000
  H   H48       1.0  0.25697  0.65556  0.20476  1.0000
  H   H49       1.0  0.25702  0.60481  0.20452  1.0000
  C   C81       1.0  0.26836  0.74729  0.34608  1.0000
  C   C82       1.0  0.25215  0.71188  0.34628  1.0000
  C   C83       1.0  0.26922  0.69401  0.34649  1.0000
  C   C84       1.0  0.25043  0.76521  0.34608  1.0000
  C   C85       1.0  0.24957  0.81849  0.34634  1.0000
  C   C86       1.0  0.26665  0.80062  0.34633  1.0000
  H   H50       1.0  0.29169  0.81467  0.34654  1.0000
  C   C87       1.0  0.26839  0.52422  0.34622  1.0000
  C   C88       1.0  0.25045  0.98837  0.34622  1.0000
  C   C89       1.0  0.26560  0.89946  0.42800  1.0000
  C   C90       1.0  0.26560  0.86930  0.42804  1.0000
  C   C91       1.0  0.26532  0.85337  0.34651  1.0000
  C   C92       1.0  0.26534  0.91509  0.34641  1.0000
  H   H51       1.0  0.26168  0.85704  0.48813  1.0000
  H   H52       1.0  0.26167  0.90781  0.48805  1.0000
  C   C93       1.0  0.25343  0.61320  0.42789  1.0000
  C   C94       1.0  0.25332  0.64329  0.42819  1.0000
  C   C95       1.0  0.25345  0.65911  0.34664  1.0000
  C   C96       1.0  0.25352  0.59751  0.34618  1.0000
  H   H53       1.0  0.25723  0.65551  0.48836  1.0000
  H   H54       1.0  0.25726  0.60475  0.48793  1.0000
  C   C97       1.0  0.43732  0.19400  0.34639  1.0000
  C   C98       1.0  0.47227  0.21187  0.34623  1.0000
  H   H55       1.0  0.48326  0.19782  0.34630  1.0000
  C   C99       1.0  0.32165  0.24643  0.34633  1.0000
  C   C100      1.0  0.30378  0.26351  0.34595  1.0000
  H   H56       1.0  0.31784  0.28855  0.34562  1.0000
  C   C101      1.0  0.40260  0.26254  0.26457  1.0000
  C   C102      1.0  0.37242  0.26252  0.26461  1.0000
  H   H57       1.0  0.41107  0.25883  0.20444  1.0000
  H   H58       1.0  0.36025  0.25886  0.20446  1.0000
  C   C103      1.0  0.37236  0.11321  0.26482  1.0000
  C   C104      1.0  0.40256  0.14332  0.26491  1.0000
  H   H59       1.0  0.36015  0.10484  0.20467  1.0000
  H   H60       1.0  0.41093  0.15562  0.20487  1.0000
  C   C105      1.0  0.49147  0.24729  0.34604  1.0000
  C   C106      1.0  0.47226  0.26350  0.34595  1.0000
  C   C107      1.0  0.43731  0.24642  0.34634  1.0000
  C   C108      1.0  0.42031  0.21171  0.34654  1.0000
  H   H61       1.0  0.48325  0.28854  0.34569  1.0000
  H   H62       1.0  0.39493  0.19901  0.34668  1.0000
  C   C109      1.0  0.30394  0.21171  0.34661  1.0000
  H   H63       1.0  0.31662  0.19902  0.34675  1.0000
  C   C110      1.0  0.30380  0.04342  0.34638  1.0000
  C   C111      1.0  0.32168  0.07837  0.34624  1.0000
  C   C112      1.0  0.30397  0.09538  0.34616  1.0000
  H   H64       1.0  0.31786  0.03243  0.34659  1.0000
  H   H65       1.0  0.31666  0.12076  0.34618  1.0000
  C   C113      1.0  0.37228  0.26218  0.42794  1.0000
  C   C114      1.0  0.40244  0.26219  0.42790  1.0000
  C   C115      1.0  0.41816  0.26216  0.34617  1.0000
  C   C116      1.0  0.35656  0.26218  0.34628  1.0000
  H   H66       1.0  0.41075  0.25817  0.48791  1.0000
  H   H67       1.0  0.36000  0.25819  0.48803  1.0000
  C   C117      1.0  0.40254  0.14320  0.42825  1.0000
  C   C118      1.0  0.37240  0.11303  0.42819  1.0000
  C   C119      1.0  0.35658  0.09751  0.34645  1.0000
  C   C120      1.0  0.41817  0.15911  0.34668  1.0000
  H   H68       1.0  0.36010  0.10463  0.48822  1.0000
  H   H69       1.0  0.41089  0.15546  0.48834  1.0000
  C   C121      1.0  0.43732  0.69400  0.34639  1.0000
  C   C122      1.0  0.47227  0.71187  0.34623  1.0000
  H   H70       1.0  0.48326  0.69782  0.34630  1.0000
  C   C123      1.0  0.32165  0.74643  0.34633  1.0000
  C   C124      1.0  0.30378  0.76351  0.34595  1.0000
  H   H71       1.0  0.31784  0.78855  0.34562  1.0000
  C   C125      1.0  0.40260  0.76255  0.26457  1.0000
  C   C126      1.0  0.37242  0.76251  0.26461  1.0000
  H   H72       1.0  0.41107  0.75883  0.20444  1.0000
  H   H73       1.0  0.36025  0.75886  0.20446  1.0000
  C   C127      1.0  0.37236  0.61321  0.26482  1.0000
  C   C128      1.0  0.40256  0.64332  0.26491  1.0000
  H   H74       1.0  0.36015  0.60484  0.20467  1.0000
  H   H75       1.0  0.41093  0.65562  0.20487  1.0000
  C   C129      1.0  0.49147  0.74729  0.34604  1.0000
  C   C130      1.0  0.47227  0.76350  0.34595  1.0000
  C   C131      1.0  0.43731  0.74642  0.34634  1.0000
  C   C132      1.0  0.42031  0.71171  0.34654  1.0000
  H   H76       1.0  0.48325  0.78854  0.34569  1.0000
  H   H77       1.0  0.39493  0.69901  0.34668  1.0000
  C   C133      1.0  0.30394  0.71171  0.34661  1.0000
  H   H78       1.0  0.31662  0.69902  0.34675  1.0000
  C   C134      1.0  0.30380  0.54342  0.34638  1.0000
  C   C135      1.0  0.32168  0.57837  0.34624  1.0000
  C   C136      1.0  0.30397  0.59537  0.34616  1.0000
  H   H79       1.0  0.31786  0.53243  0.34659  1.0000
  H   H80       1.0  0.31666  0.62076  0.34618  1.0000
  C   C137      1.0  0.37228  0.76218  0.42794  1.0000
  C   C138      1.0  0.40244  0.76219  0.42790  1.0000
  C   C139      1.0  0.41816  0.76216  0.34617  1.0000
  C   C140      1.0  0.35656  0.76218  0.34628  1.0000
  H   H81       1.0  0.41075  0.75817  0.48791  1.0000
  H   H82       1.0  0.36000  0.75819  0.48803  1.0000
  C   C141      1.0  0.40254  0.64320  0.42825  1.0000
  C   C142      1.0  0.37240  0.61303  0.42819  1.0000
  C   C143      1.0  0.35658  0.59751  0.34645  1.0000
  C   C144      1.0  0.41817  0.65911  0.34668  1.0000
  H   H83       1.0  0.36010  0.60463  0.48822  1.0000
  H   H84       1.0  0.41089  0.65546  0.48834  1.0000
  C   C145      1.0  0.93732  0.19400  0.34639  1.0000
  C   C146      1.0  0.97227  0.21187  0.34623  1.0000
  H   H85       1.0  0.98326  0.19782  0.34630  1.0000
  C   C147      1.0  0.54651  0.30062  0.34610  1.0000
  C   C148      1.0  0.58147  0.31850  0.34624  1.0000
  H   H86       1.0  0.53553  0.31468  0.34616  1.0000
  C   C149      1.0  0.82165  0.24643  0.34633  1.0000
  C   C150      1.0  0.80378  0.26351  0.34595  1.0000
  H   H87       1.0  0.81783  0.28855  0.34562  1.0000
  C   C151      1.0  0.71501  0.24899  0.34591  1.0000
  C   C152      1.0  0.69714  0.26607  0.34619  1.0000
  H   H88       1.0  0.70096  0.22395  0.34564  1.0000
  C   C153      1.0  0.76925  0.07837  0.34613  1.0000
  C   C154      1.0  0.75217  0.04342  0.34607  1.0000
  H   H89       1.0  0.72713  0.03243  0.34595  1.0000
  C   C155      1.0  0.76667  0.46918  0.34616  1.0000
  C   C156      1.0  0.74959  0.43423  0.34618  1.0000
  H   H90       1.0  0.79171  0.48016  0.34610  1.0000
  C   C157      1.0  0.61616  0.25006  0.26472  1.0000
  C   C158      1.0  0.64628  0.24997  0.26453  1.0000
  H   H91       1.0  0.60767  0.25377  0.20460  1.0000
  H   H92       1.0  0.65848  0.25379  0.20439  1.0000
  C   C159      1.0  0.76547  0.36922  0.26492  1.0000
  C   C160      1.0  0.76556  0.39942  0.26481  1.0000
  H   H93       1.0  0.76166  0.35701  0.20477  1.0000
  H   H94       1.0  0.76165  0.40777  0.20470  1.0000
  C   C161      1.0  0.64640  0.39938  0.26488  1.0000
  C   C162      1.0  0.61626  0.36921  0.26492  1.0000
  H   H95       1.0  0.65865  0.40768  0.20475  1.0000
  H   H96       1.0  0.60791  0.35696  0.20479  1.0000
  C   C163      1.0  0.90260  0.26254  0.26457  1.0000
  C   C164      1.0  0.87243  0.26252  0.26461  1.0000
  H   H97       1.0  0.91107  0.25883  0.20444  1.0000
  H   H98       1.0  0.86025  0.25886  0.20446  1.0000
  C   C165      1.0  0.75323  0.14335  0.26486  1.0000
  C   C166      1.0  0.75318  0.11316  0.26468  1.0000
  H   H99       1.0  0.75696  0.15557  0.20476  1.0000
  H   H100      1.0  0.75702  0.10481  0.20452  1.0000
  C   C167      1.0  0.87236  0.11321  0.26482  1.0000
  C   C168      1.0  0.90256  0.14332  0.26491  1.0000
  H   H101      1.0  0.86015  0.10484  0.20467  1.0000
  H   H102      1.0  0.91093  0.15562  0.20487  1.0000
  C   C169      1.0  0.99147  0.24729  0.34604  1.0000
  C   C170      1.0  0.97226  0.26350  0.34595  1.0000
  C   C171      1.0  0.93731  0.24642  0.34634  1.0000
  C   C172      1.0  0.92031  0.21171  0.34654  1.0000
  H   H103      1.0  0.98325  0.28854  0.34569  1.0000
  H   H104      1.0  0.89493  0.19901  0.34668  1.0000
  C   C173      1.0  0.52732  0.26521  0.34602  1.0000
  C   C174      1.0  0.59848  0.30079  0.34649  1.0000
  C   C175      1.0  0.58147  0.26608  0.34627  1.0000
  C   C176      1.0  0.54652  0.24900  0.34602  1.0000
  H   H105      1.0  0.62386  0.31349  0.34670  1.0000
  H   H106      1.0  0.53553  0.22396  0.34591  1.0000
  C   C177      1.0  0.76836  0.24729  0.34608  1.0000
  C   C178      1.0  0.75214  0.21188  0.34628  1.0000
  C   C179      1.0  0.76922  0.19401  0.34649  1.0000
  C   C180      1.0  0.80394  0.21171  0.34661  1.0000
  H   H107      1.0  0.72710  0.19783  0.34639  1.0000
  H   H108      1.0  0.81662  0.19902  0.34675  1.0000
  C   C181      1.0  0.75043  0.26521  0.34608  1.0000
  C   C182      1.0  0.71486  0.30079  0.34632  1.0000
  C   C183      1.0  0.74957  0.31849  0.34634  1.0000
  C   C184      1.0  0.76665  0.30062  0.34633  1.0000
  H   H109      1.0  0.70217  0.31348  0.34639  1.0000
  H   H110      1.0  0.79169  0.31467  0.34654  1.0000
  C   C185      1.0  0.76839  0.02422  0.34622  1.0000
  C   C186      1.0  0.80380  0.04342  0.34638  1.0000
  C   C187      1.0  0.82168  0.07837  0.34624  1.0000
  C   C188      1.0  0.80397  0.09538  0.34616  1.0000
  H   H111      1.0  0.81785  0.03243  0.34659  1.0000
  H   H112      1.0  0.81666  0.12076  0.34618  1.0000
  C   C189      1.0  0.75046  0.48837  0.34622  1.0000
  C   C190      1.0  0.71488  0.41722  0.34627  1.0000
  C   C191      1.0  0.69717  0.43422  0.34624  1.0000
  C   C192      1.0  0.71504  0.46917  0.34630  1.0000
  H   H113      1.0  0.70219  0.39184  0.34635  1.0000
  H   H114      1.0  0.70098  0.48016  0.34643  1.0000
  C   C193      1.0  0.64654  0.25034  0.42783  1.0000
  C   C194      1.0  0.61634  0.25025  0.42807  1.0000
  C   C195      1.0  0.60063  0.25033  0.34649  1.0000
  C   C196      1.0  0.66225  0.25034  0.34607  1.0000
  H   H115      1.0  0.60804  0.25419  0.48820  1.0000
  H   H116      1.0  0.65882  0.25418  0.48786  1.0000
  C   C197      1.0  0.76560  0.39946  0.42800  1.0000
  C   C198      1.0  0.76560  0.36930  0.42804  1.0000
  C   C199      1.0  0.76532  0.35337  0.34651  1.0000
  C   C200      1.0  0.76534  0.41509  0.34641  1.0000
  H   H117      1.0  0.76168  0.35705  0.48813  1.0000
  H   H118      1.0  0.76167  0.40781  0.48805  1.0000
  C   C201      1.0  0.61624  0.36928  0.42814  1.0000
  C   C202      1.0  0.64638  0.39945  0.42808  1.0000
  C   C203      1.0  0.66229  0.41507  0.34647  1.0000
  C   C204      1.0  0.60061  0.35339  0.34660  1.0000
  H   H119      1.0  0.65866  0.40781  0.48813  1.0000
  H   H120      1.0  0.60790  0.35706  0.48828  1.0000
  C   C205      1.0  0.87228  0.26218  0.42794  1.0000
  C   C206      1.0  0.90244  0.26219  0.42790  1.0000
  C   C207      1.0  0.91816  0.26216  0.34617  1.0000
  C   C208      1.0  0.85655  0.26218  0.34628  1.0000
  H   H121      1.0  0.91076  0.25817  0.48791  1.0000
  H   H122      1.0  0.86000  0.25819  0.48803  1.0000
  C   C209      1.0  0.75343  0.11320  0.42789  1.0000
  C   C210      1.0  0.75332  0.14330  0.42819  1.0000
  C   C211      1.0  0.75345  0.15911  0.34664  1.0000
  C   C212      1.0  0.75352  0.09751  0.34618  1.0000
  H   H123      1.0  0.75723  0.15551  0.48836  1.0000
  H   H124      1.0  0.75726  0.10475  0.48793  1.0000
  C   C213      1.0  0.90254  0.14320  0.42825  1.0000
  C   C214      1.0  0.87240  0.11303  0.42819  1.0000
  C   C215      1.0  0.85658  0.09751  0.34645  1.0000
  C   C216      1.0  0.91817  0.15911  0.34668  1.0000
  H   H125      1.0  0.86010  0.10463  0.48822  1.0000
  H   H126      1.0  0.91089  0.15546  0.48834  1.0000
  C   C217      1.0  0.93732  0.69400  0.34639  1.0000
  C   C218      1.0  0.97227  0.71187  0.34623  1.0000
  H   H127      1.0  0.98325  0.69782  0.34630  1.0000
  C   C219      1.0  0.54651  0.80062  0.34610  1.0000
  C   C220      1.0  0.58147  0.81850  0.34624  1.0000
  H   H128      1.0  0.53553  0.81468  0.34616  1.0000
  C   C221      1.0  0.82165  0.74643  0.34633  1.0000
  C   C222      1.0  0.80378  0.76351  0.34595  1.0000
  H   H129      1.0  0.81784  0.78855  0.34562  1.0000
  C   C223      1.0  0.71501  0.74899  0.34591  1.0000
  C   C224      1.0  0.69714  0.76607  0.34619  1.0000
  H   H130      1.0  0.70096  0.72395  0.34564  1.0000
  C   C225      1.0  0.76925  0.57836  0.34613  1.0000
  C   C226      1.0  0.75217  0.54342  0.34607  1.0000
  H   H131      1.0  0.72713  0.53243  0.34595  1.0000
  C   C227      1.0  0.76667  0.96918  0.34616  1.0000
  C   C228      1.0  0.74959  0.93423  0.34618  1.0000
  H   H132      1.0  0.79171  0.98016  0.34610  1.0000
  C   C229      1.0  0.61616  0.75006  0.26472  1.0000
  C   C230      1.0  0.64628  0.74997  0.26453  1.0000
  H   H133      1.0  0.60767  0.75377  0.20460  1.0000
  H   H134      1.0  0.65848  0.75379  0.20439  1.0000
  C   C231      1.0  0.76547  0.86922  0.26492  1.0000
  C   C232      1.0  0.76556  0.89942  0.26481  1.0000
  H   H135      1.0  0.76166  0.85701  0.20477  1.0000
  H   H136      1.0  0.76166  0.90777  0.20470  1.0000
  C   C233      1.0  0.64639  0.89938  0.26488  1.0000
  C   C234      1.0  0.61626  0.86920  0.26492  1.0000
  H   H137      1.0  0.65865  0.90768  0.20475  1.0000
  H   H138      1.0  0.60791  0.85696  0.20479  1.0000
  C   C235      1.0  0.90260  0.76255  0.26457  1.0000
  C   C236      1.0  0.87242  0.76251  0.26461  1.0000
  H   H139      1.0  0.91107  0.75883  0.20444  1.0000
  H   H140      1.0  0.86025  0.75886  0.20446  1.0000
  C   C237      1.0  0.75323  0.64334  0.26486  1.0000
  C   C238      1.0  0.75318  0.61316  0.26468  1.0000
  H   H141      1.0  0.75696  0.65556  0.20476  1.0000
  H   H142      1.0  0.75702  0.60481  0.20452  1.0000
  C   C239      1.0  0.87236  0.61321  0.26482  1.0000
  C   C240      1.0  0.90256  0.64332  0.26491  1.0000
  H   H143      1.0  0.86015  0.60484  0.20467  1.0000
  H   H144      1.0  0.91093  0.65562  0.20487  1.0000
  C   C241      1.0  0.99147  0.74729  0.34604  1.0000
  C   C242      1.0  0.97227  0.76350  0.34595  1.0000
  C   C243      1.0  0.93731  0.74642  0.34634  1.0000
  C   C244      1.0  0.92031  0.71171  0.34654  1.0000
  H   H145      1.0  0.98325  0.78854  0.34569  1.0000
  H   H146      1.0  0.89493  0.69901  0.34668  1.0000
  C   C245      1.0  0.52732  0.76521  0.34602  1.0000
  C   C246      1.0  0.59848  0.80079  0.34649  1.0000
  C   C247      1.0  0.58147  0.76607  0.34627  1.0000
  C   C248      1.0  0.54652  0.74900  0.34602  1.0000
  H   H147      1.0  0.62386  0.81349  0.34670  1.0000
  H   H148      1.0  0.53554  0.72396  0.34591  1.0000
  C   C249      1.0  0.76836  0.74729  0.34608  1.0000
  C   C250      1.0  0.75215  0.71188  0.34628  1.0000
  C   C251      1.0  0.76922  0.69401  0.34649  1.0000
  C   C252      1.0  0.80394  0.71171  0.34661  1.0000
  H   H149      1.0  0.72710  0.69783  0.34639  1.0000
  H   H150      1.0  0.81662  0.69902  0.34675  1.0000
  C   C253      1.0  0.75043  0.76521  0.34608  1.0000
  C   C254      1.0  0.71486  0.80079  0.34632  1.0000
  C   C255      1.0  0.74957  0.81849  0.34634  1.0000
  C   C256      1.0  0.76665  0.80062  0.34633  1.0000
  H   H151      1.0  0.70217  0.81348  0.34639  1.0000
  H   H152      1.0  0.79169  0.81467  0.34654  1.0000
  C   C257      1.0  0.76839  0.52422  0.34622  1.0000
  C   C258      1.0  0.80380  0.54342  0.34638  1.0000
  C   C259      1.0  0.82168  0.57837  0.34624  1.0000
  C   C260      1.0  0.80397  0.59537  0.34616  1.0000
  H   H153      1.0  0.81785  0.53243  0.34659  1.0000
  H   H154      1.0  0.81666  0.62076  0.34618  1.0000
  C   C261      1.0  0.75045  0.98837  0.34622  1.0000
  C   C262      1.0  0.71488  0.91722  0.34627  1.0000
  C   C263      1.0  0.69717  0.93422  0.34624  1.0000
  C   C264      1.0  0.71504  0.96917  0.34630  1.0000
  H   H155      1.0  0.70219  0.89184  0.34635  1.0000
  H   H156      1.0  0.70098  0.98016  0.34643  1.0000
  C   C265      1.0  0.64654  0.75034  0.42783  1.0000
  C   C266      1.0  0.61634  0.75025  0.42807  1.0000
  C   C267      1.0  0.60063  0.75033  0.34649  1.0000
  C   C268      1.0  0.66225  0.75034  0.34607  1.0000
  H   H157      1.0  0.60804  0.75419  0.48820  1.0000
  H   H158      1.0  0.65882  0.75418  0.48786  1.0000
  C   C269      1.0  0.76560  0.89946  0.42800  1.0000
  C   C270      1.0  0.76560  0.86930  0.42804  1.0000
  C   C271      1.0  0.76532  0.85337  0.34651  1.0000
  C   C272      1.0  0.76534  0.91509  0.34641  1.0000
  H   H159      1.0  0.76168  0.85704  0.48813  1.0000
  H   H160      1.0  0.76167  0.90781  0.48805  1.0000
  C   C273      1.0  0.61624  0.86928  0.42814  1.0000
  C   C274      1.0  0.64638  0.89945  0.42808  1.0000
  C   C275      1.0  0.66229  0.91507  0.34647  1.0000
  C   C276      1.0  0.60060  0.85339  0.34660  1.0000
  H   H161      1.0  0.65866  0.90781  0.48813  1.0000
  H   H162      1.0  0.60790  0.85706  0.48828  1.0000
  C   C277      1.0  0.87228  0.76218  0.42794  1.0000
  C   C278      1.0  0.90244  0.76219  0.42790  1.0000
  C   C279      1.0  0.91816  0.76216  0.34617  1.0000
  C   C280      1.0  0.85656  0.76218  0.34628  1.0000
  H   H163      1.0  0.91075  0.75817  0.48791  1.0000
  H   H164      1.0  0.86000  0.75819  0.48803  1.0000
  C   C281      1.0  0.75343  0.61320  0.42789  1.0000
  C   C282      1.0  0.75332  0.64329  0.42819  1.0000
  C   C283      1.0  0.75345  0.65911  0.34664  1.0000
  C   C284      1.0  0.75351  0.59751  0.34618  1.0000
  H   H165      1.0  0.75723  0.65551  0.48836  1.0000
  H   H166      1.0  0.75726  0.60475  0.48793  1.0000
  C   C285      1.0  0.90254  0.64320  0.42825  1.0000
  C   C286      1.0  0.87240  0.61303  0.42819  1.0000
  C   C287      1.0  0.85658  0.59751  0.34645  1.0000
  C   C288      1.0  0.91817  0.65911  0.34668  1.0000
  H   H167      1.0  0.86010  0.60463  0.48822  1.0000
  H   H168      1.0  0.91089  0.65546  0.48834  1.0000
