data_image0
_chemical_formula_structural       C2H2C2H3C4H2C3H2C3HC3H3NC3H4C4H4C5H3CH3NC4H3CH3NC8H4C3HC6H2C8H4C5H3C6H2C4H3CH3NC4H3CH3NC2H2C4H2C6H3NCHC2H3
_chemical_formula_sum              "C96 H72 N6"
_cell_length_a       45.5702
_cell_length_b       45.5758
_cell_length_c       14.4335
_cell_angle_alpha    90
_cell_angle_beta     90
_cell_angle_gamma    119.994

_space_group_name_H-M_alt    "P 1"
_space_group_IT_number       1

loop_
  _space_group_symop_operation_xyz
  'x, y, z'

loop_
  _atom_site_type_symbol
  _atom_site_label
  _atom_site_symmetry_multiplicity
  _atom_site_fract_x
  _atom_site_fract_y
  _atom_site_fract_z
  _atom_site_occupancy
  C   C1        1.0  0.20784  0.62929  0.36446  1.0000
  C   C2        1.0  0.17222  0.60810  0.36676  1.0000
  H   H1        1.0  0.21771  0.65450  0.35001  1.0000
  H   H2        1.0  0.15745  0.61871  0.35395  1.0000
  C   C3        1.0  0.04766  0.52388  0.29168  1.0000
  C   C4        1.0  0.06656  0.52833  0.20278  1.0000
  H   H3        1.0  0.09384  0.54518  0.20767  1.0000
  H   H4        1.0  0.05754  0.53898  0.14977  1.0000
  H   H5        1.0  0.06257  0.50387  0.17901  1.0000
  C   C5        1.0  0.22954  0.61606  0.38177  1.0000
  C   C6        1.0  0.15699  0.57298  0.38642  1.0000
  C   C7        1.0  0.17912  0.56011  0.40364  1.0000
  C   C8        1.0  0.21464  0.58114  0.40139  1.0000
  H   H6        1.0  0.16953  0.53496  0.41820  1.0000
  H   H7        1.0  0.22946  0.57053  0.41432  1.0000
  C   C9        1.0  0.32668  0.66831  0.37885  1.0000
  C   C10       1.0  0.34496  0.70420  0.37889  1.0000
  C   C11       1.0  0.34490  0.65063  0.37885  1.0000
  H   H8        1.0  0.33195  0.71721  0.37903  1.0000
  H   H9        1.0  0.33188  0.62460  0.37895  1.0000
  C   C12       1.0  0.26283  0.63534  0.37993  1.0000
  C   C13       1.0  0.29323  0.65152  0.37915  1.0000
  C   C14       1.0  0.12177  0.55098  0.38977  1.0000
  H   H10       1.0  0.11328  0.52683  0.40645  1.0000
  C   C15       1.0  0.06548  0.54019  0.37440  1.0000
  C   C16       1.0  0.04740  0.53657  0.45827  1.0000
  C   C17       1.0  0.06609  0.55501  0.54400  1.0000
  H   H11       1.0  0.09321  0.57178  0.53455  1.0000
  H   H12       1.0  0.06303  0.53676  0.59751  1.0000
  H   H13       1.0  0.05605  0.57083  0.56918  1.0000
  N   N1        1.0  0.09947  0.55984  0.37254  1.0000
  C   C18       1.0  0.41963  0.58824  0.36690  1.0000
  C   C19       1.0  0.46069  0.84123  0.36464  1.0000
  C   C20       1.0  0.47512  0.87685  0.36694  1.0000
  H   H14       1.0  0.43006  0.54829  0.35853  1.0000
  H   H15       1.0  0.47604  0.83135  0.35034  1.0000
  H   H16       1.0  0.50052  0.89161  0.35427  1.0000
  H   H17       1.0  0.39426  0.57276  0.35481  1.0000
  C   C21       1.0  0.44083  0.57381  0.36904  1.0000
  C   C22       1.0  0.63941  0.45114  0.36194  1.0000
  C   C23       1.0  0.59802  0.19806  0.35969  1.0000
  C   C24       1.0  0.58370  0.16245  0.35891  1.0000
  H   H18       1.0  0.62882  0.49092  0.34921  1.0000
  H   H19       1.0  0.58262  0.20801  0.34698  1.0000
  H   H20       1.0  0.55839  0.14772  0.34507  1.0000
  H   H21       1.0  0.66487  0.46667  0.35139  1.0000
  C   C25       1.0  0.61811  0.46546  0.36094  1.0000
  C   C26       1.0  0.54956  0.50378  0.37692  1.0000
  C   C27       1.0  0.54593  0.51820  0.29313  1.0000
  C   C28       1.0  0.52516  0.53358  0.29152  1.0000
  C   C29       1.0  0.56375  0.51732  0.20661  1.0000
  H   H22       1.0  0.57947  0.50573  0.21517  1.0000
  H   H23       1.0  0.58044  0.54305  0.18179  1.0000
  H   H24       1.0  0.54521  0.50295  0.15290  1.0000
  C   C30       1.0  0.52067  0.54798  0.20259  1.0000
  H   H25       1.0  0.50377  0.55834  0.20742  1.0000
  H   H26       1.0  0.51007  0.52830  0.14960  1.0000
  H   H27       1.0  0.54512  0.56847  0.17881  1.0000
  N   N2        1.0  0.56948  0.48967  0.37900  1.0000
  C   C31       1.0  0.54528  0.05559  0.37710  1.0000
  C   C32       1.0  0.53087  0.03754  0.29330  1.0000
  C   C33       1.0  0.51547  0.00141  0.29170  1.0000
  C   C34       1.0  0.53179  0.05625  0.20675  1.0000
  H   H28       1.0  0.54344  0.08356  0.21526  1.0000
  H   H29       1.0  0.50606  0.04726  0.18194  1.0000
  H   H30       1.0  0.54613  0.05202  0.15305  1.0000
  C   C35       1.0  0.50101  0.98251  0.20282  1.0000
  H   H31       1.0  0.49058  0.95523  0.20770  1.0000
  H   H32       1.0  0.52068  0.99153  0.14980  1.0000
  H   H33       1.0  0.48055  0.98651  0.17904  1.0000
  N   N3        1.0  0.55936  0.08961  0.37916  1.0000
  C   C36       1.0  0.42575  0.81954  0.38177  1.0000
  C   C37       1.0  0.43306  0.62336  0.38127  1.0000
  C   C38       1.0  0.47616  0.59390  0.38561  1.0000
  C   C39       1.0  0.48923  0.62908  0.39985  1.0000
  C   C40       1.0  0.46820  0.64358  0.39773  1.0000
  C   C41       1.0  0.45522  0.89208  0.38641  1.0000
  C   C42       1.0  0.42021  0.86997  0.40344  1.0000
  C   C43       1.0  0.40571  0.83445  0.40118  1.0000
  H   H34       1.0  0.51454  0.64479  0.41213  1.0000
  H   H35       1.0  0.47895  0.66914  0.40851  1.0000
  H   H36       1.0  0.38028  0.81964  0.41399  1.0000
  H   H37       1.0  0.40464  0.87957  0.41785  1.0000
  C   C44       1.0  0.38086  0.72242  0.37885  1.0000
  C   C45       1.0  0.39848  0.70413  0.37885  1.0000
  C   C46       1.0  0.38079  0.66823  0.37881  1.0000
  H   H38       1.0  0.42450  0.71714  0.37896  1.0000
  C   C47       1.0  0.41377  0.63736  0.37969  1.0000
  C   C48       1.0  0.39759  0.65158  0.37904  1.0000
  C   C49       1.0  0.39752  0.75586  0.37916  1.0000
  C   C50       1.0  0.41174  0.78626  0.37994  1.0000
  C   C51       1.0  0.46845  0.92730  0.38975  1.0000
  C   C52       1.0  0.49815  0.58067  0.38896  1.0000
  H   H39       1.0  0.52236  0.59638  0.40496  1.0000
  H   H40       1.0  0.45278  0.93580  0.40641  1.0000
  C   C53       1.0  0.63301  0.21968  0.37648  1.0000
  C   C54       1.0  0.62589  0.41598  0.37599  1.0000
  C   C55       1.0  0.58259  0.44518  0.37375  1.0000
  C   C56       1.0  0.56943  0.41002  0.38835  1.0000
  C   C57       1.0  0.59059  0.39565  0.38961  1.0000
  C   C58       1.0  0.60382  0.14721  0.37459  1.0000
  C   C59       1.0  0.63882  0.16919  0.39188  1.0000
  C   C60       1.0  0.65317  0.20470  0.39302  1.0000
  H   H41       1.0  0.54396  0.39423  0.39784  1.0000
  H   H42       1.0  0.57976  0.37006  0.39984  1.0000
  H   H43       1.0  0.67865  0.21946  0.40518  1.0000
  H   H44       1.0  0.65449  0.15949  0.40343  1.0000
  C   C61       1.0  0.71388  0.33501  0.37445  1.0000
  C   C62       1.0  0.67797  0.31683  0.37445  1.0000
  C   C63       1.0  0.66040  0.33515  0.37442  1.0000
  C   C64       1.0  0.67811  0.37105  0.37441  1.0000
  C   C65       1.0  0.71401  0.38862  0.37442  1.0000
  H   H45       1.0  0.63437  0.32217  0.37457  1.0000
  H   H46       1.0  0.72686  0.32197  0.37463  1.0000
  H   H47       1.0  0.72705  0.41464  0.37457  1.0000
  C   C66       1.0  0.64519  0.40199  0.37536  1.0000
  C   C67       1.0  0.66135  0.38775  0.37481  1.0000
  C   C68       1.0  0.66127  0.28337  0.37492  1.0000
  C   C69       1.0  0.64702  0.25298  0.37560  1.0000
  C   C70       1.0  0.59099  0.11212  0.37053  1.0000
  C   C71       1.0  0.56037  0.45807  0.36972  1.0000
  H   H48       1.0  0.53580  0.44171  0.36017  1.0000
  H   H49       1.0  0.60741  0.10395  0.36162  1.0000
  C   C72       1.0  0.50888  0.53511  0.37425  1.0000
  C   C73       1.0  0.51249  0.52065  0.45813  1.0000
  C   C74       1.0  0.53348  0.50552  0.45985  1.0000
  C   C75       1.0  0.53947  0.49098  0.54639  1.0000
  H   H50       1.0  0.52838  0.49453  0.60901  1.0000
  H   H51       1.0  0.56666  0.50275  0.55926  1.0000
  H   H52       1.0  0.52901  0.46375  0.53781  1.0000
  C   C76       1.0  0.49412  0.52098  0.54391  1.0000
  H   H53       1.0  0.47744  0.53145  0.53456  1.0000
  H   H54       1.0  0.51240  0.53609  0.59742  1.0000
  H   H55       1.0  0.47820  0.49513  0.56906  1.0000
  N   N4        1.0  0.48922  0.54946  0.37243  1.0000
  C   C77       1.0  0.51395  0.98358  0.37443  1.0000
  C   C78       1.0  0.52842  0.00166  0.45829  1.0000
  C   C79       1.0  0.54352  0.03777  0.46004  1.0000
  C   C80       1.0  0.55800  0.05828  0.54664  1.0000
  H   H56       1.0  0.55436  0.04363  0.60928  1.0000
  H   H57       1.0  0.54624  0.07372  0.55935  1.0000
  H   H58       1.0  0.58525  0.07501  0.53825  1.0000
  C   C81       1.0  0.52815  0.98296  0.54403  1.0000
  H   H59       1.0  0.51779  0.95584  0.53460  1.0000
  H   H60       1.0  0.51298  0.98604  0.59754  1.0000
  H   H61       1.0  0.55401  0.99298  0.56921  1.0000
  N   N5        1.0  0.49960  0.94959  0.37257  1.0000
  C   C82       1.0  0.85098  0.40975  0.35951  1.0000
  C   C83       1.0  0.88660  0.43105  0.35870  1.0000
  H   H62       1.0  0.84105  0.38442  0.34667  1.0000
  H   H63       1.0  0.90134  0.42048  0.34479  1.0000
  C   C84       1.0  0.82935  0.42309  0.37646  1.0000
  C   C85       1.0  0.90183  0.46639  0.37460  1.0000
  C   C86       1.0  0.87984  0.47939  0.39206  1.0000
  C   C87       1.0  0.84432  0.45822  0.39317  1.0000
  H   H64       1.0  0.88953  0.50474  0.40378  1.0000
  H   H65       1.0  0.82956  0.46893  0.40550  1.0000
  C   C88       1.0  0.73220  0.37090  0.37445  1.0000
  C   C89       1.0  0.79605  0.40381  0.37559  1.0000
  C   C90       1.0  0.76565  0.38766  0.37491  1.0000
  C   C91       1.0  0.99346  0.49949  0.37707  1.0000
  C   C92       1.0  0.01152  0.50314  0.29327  1.0000
  C   C93       1.0  0.99282  0.48536  0.20671  1.0000
  H   H66       1.0  0.96550  0.46970  0.21521  1.0000
  H   H67       1.0  0.00182  0.46863  0.18190  1.0000
  H   H68       1.0  0.99703  0.50392  0.15302  1.0000
  N   N6        1.0  0.95944  0.47955  0.37912  1.0000
  C   C94       1.0  0.93693  0.48866  0.37056  1.0000
  H   H69       1.0  0.94509  0.51325  0.36171  1.0000
  C   C95       1.0  0.01129  0.51555  0.46001  1.0000
  C   C96       1.0  0.99077  0.50950  0.54661  1.0000
  H   H70       1.0  0.00543  0.52052  0.60926  1.0000
  H   H71       1.0  0.97533  0.48231  0.55930  1.0000
  H   H72       1.0  0.97403  0.52001  0.53825  1.0000
