data_image0
_chemical_formula_structural       C7H2C2O2CNCHNHCNCHNHC5HC4H3C2O2C2NHNHC2NHNHC7H2C2O2CNCHNHCNCHNHC5HC4H3C2O2C2NHNHC2NHNHC7H2C2O2CNCHNHCNCHNHC5HC4H3C2O2C2NHNHC2NHNHC7H2C2O2CNCHNHCNCHNHC5HC4H3C2O2C2NHNHC2NHNH
_chemical_formula_sum              "C112 H56 O16 N32"
_cell_length_a       30.667
_cell_length_b       30.667
_cell_length_c       15.0744
_cell_angle_alpha    90
_cell_angle_beta     90
_cell_angle_gamma    90

_space_group_name_H-M_alt    "P 1"
_space_group_IT_number       1

loop_
  _space_group_symop_operation_xyz
  'x, y, z'

loop_
  _atom_site_type_symbol
  _atom_site_label
  _atom_site_symmetry_multiplicity
  _atom_site_fract_x
  _atom_site_fract_y
  _atom_site_fract_z
  _atom_site_occupancy
  C   C1        1.0  0.05660  0.00469  0.36175  1.0000
  C   C2        1.0  0.08949  0.03745  0.36159  1.0000
  C   C3        1.0  0.07888  0.07902  0.32822  1.0000
  C   C4        1.0  0.48100  0.48101  0.32837  1.0000
  C   C5        1.0  0.40553  0.45766  0.29517  1.0000
  C   C6        1.0  0.43844  0.49040  0.29491  1.0000
  C   C7        1.0  0.43115  0.03158  0.25559  1.0000
  H   H1        1.0  0.09267  0.45648  0.43219  1.0000
  H   H2        1.0  0.40236  0.03863  0.22453  1.0000
  C   C8        1.0  0.13365  0.03097  0.38584  1.0000
  C   C9        1.0  0.36138  0.46421  0.27077  1.0000
  O   O1        1.0  0.15443  0.06489  0.42556  1.0000
  O   O2        1.0  0.34074  0.43020  0.23107  1.0000
  C   C10       1.0  0.02865  0.27218  0.28520  1.0000
  N   N1        1.0  0.02733  0.22825  0.27676  1.0000
  C   C11       1.0  0.99750  0.29314  0.33935  1.0000
  H   H3        1.0  0.05188  0.28938  0.25146  1.0000
  N   N2        1.0  0.99618  0.33749  0.34568  1.0000
  H   H4        1.0  0.01738  0.35340  0.30982  1.0000
  C   C12       1.0  0.22290  0.96634  0.28563  1.0000
  N   N3        1.0  0.26683  0.96762  0.27727  1.0000
  C   C13       1.0  0.20193  0.99761  0.33953  1.0000
  H   H5        1.0  0.20568  0.94312  0.25190  1.0000
  N   N4        1.0  0.15758  0.99902  0.34569  1.0000
  H   H6        1.0  0.14167  0.97778  0.30991  1.0000
  C   C14       1.0  0.01403  0.01408  0.32830  1.0000
  C   C15       1.0  0.03728  0.08956  0.29494  1.0000
  C   C16       1.0  0.00457  0.05662  0.29479  1.0000
  C   C17       1.0  0.06388  0.46352  0.40108  1.0000
  C   C18       1.0  0.46337  0.06384  0.25554  1.0000
  H   H7        1.0  0.10253  0.10270  0.32817  1.0000
  C   C19       1.0  0.49045  0.43848  0.36190  1.0000
  C   C20       1.0  0.45773  0.40555  0.36191  1.0000
  C   C21       1.0  0.41613  0.41609  0.32858  1.0000
  C   C22       1.0  0.03167  0.43125  0.40109  1.0000
  H   H8        1.0  0.39248  0.39242  0.32863  1.0000
  H   H9        1.0  0.03875  0.40249  0.43228  1.0000
  H   H10       1.0  0.45628  0.09262  0.22444  1.0000
  C   C23       1.0  0.03076  0.13367  0.27037  1.0000
  C   C24       1.0  0.46435  0.36141  0.38618  1.0000
  O   O3        1.0  0.06463  0.15438  0.23034  1.0000
  O   O4        1.0  0.43039  0.34071  0.42599  1.0000
  C   C25       1.0  0.99761  0.20192  0.31730  1.0000
  C   C26       1.0  0.96644  0.22288  0.37142  1.0000
  N   N5        1.0  0.96776  0.26681  0.37986  1.0000
  H   H11       1.0  0.94321  0.20568  0.40514  1.0000
  N   N6        1.0  0.99890  0.15757  0.31094  1.0000
  H   H12       1.0  0.97773  0.14164  0.34685  1.0000
  C   C27       1.0  0.29316  0.99736  0.31774  1.0000
  C   C28       1.0  0.27221  0.02858  0.37176  1.0000
  N   N7        1.0  0.22827  0.02732  0.38006  1.0000
  H   H13       1.0  0.28942  0.05180  0.40548  1.0000
  N   N8        1.0  0.33751  0.99603  0.31142  1.0000
  H   H14       1.0  0.35343  0.01724  0.34724  1.0000
  C   C29       1.0  0.05660  0.50469  0.36175  1.0000
  C   C30       1.0  0.08949  0.53745  0.36159  1.0000
  C   C31       1.0  0.07888  0.57902  0.32822  1.0000
  C   C32       1.0  0.48100  0.98101  0.32837  1.0000
  C   C33       1.0  0.40553  0.95766  0.29517  1.0000
  C   C34       1.0  0.43844  0.99040  0.29491  1.0000
  C   C35       1.0  0.43115  0.53158  0.25559  1.0000
  H   H15       1.0  0.09267  0.95648  0.43219  1.0000
  H   H16       1.0  0.40236  0.53863  0.22453  1.0000
  C   C36       1.0  0.13365  0.53097  0.38584  1.0000
  C   C37       1.0  0.36138  0.96421  0.27077  1.0000
  O   O5        1.0  0.15443  0.56489  0.42556  1.0000
  O   O6        1.0  0.34074  0.93020  0.23107  1.0000
  C   C38       1.0  0.02865  0.77218  0.28520  1.0000
  N   N9        1.0  0.02733  0.72825  0.27676  1.0000
  C   C39       1.0  0.99750  0.79314  0.33935  1.0000
  H   H17       1.0  0.05188  0.78938  0.25146  1.0000
  N   N10       1.0  0.99618  0.83749  0.34568  1.0000
  H   H18       1.0  0.01738  0.85340  0.30982  1.0000
  C   C40       1.0  0.22290  0.46634  0.28563  1.0000
  N   N11       1.0  0.26683  0.46762  0.27727  1.0000
  C   C41       1.0  0.20193  0.49761  0.33953  1.0000
  H   H19       1.0  0.20568  0.44313  0.25190  1.0000
  N   N12       1.0  0.15758  0.49902  0.34569  1.0000
  H   H20       1.0  0.14167  0.47778  0.30991  1.0000
  C   C42       1.0  0.01403  0.51408  0.32830  1.0000
  C   C43       1.0  0.03728  0.58956  0.29494  1.0000
  C   C44       1.0  0.00457  0.55662  0.29479  1.0000
  C   C45       1.0  0.06388  0.96351  0.40108  1.0000
  C   C46       1.0  0.46337  0.56384  0.25554  1.0000
  H   H21       1.0  0.10253  0.60270  0.32817  1.0000
  C   C47       1.0  0.49045  0.93847  0.36190  1.0000
  C   C48       1.0  0.45773  0.90555  0.36191  1.0000
  C   C49       1.0  0.41613  0.91609  0.32858  1.0000
  C   C50       1.0  0.03167  0.93125  0.40109  1.0000
  H   H22       1.0  0.39248  0.89242  0.32863  1.0000
  H   H23       1.0  0.03875  0.90249  0.43228  1.0000
  H   H24       1.0  0.45628  0.59262  0.22444  1.0000
  C   C51       1.0  0.03076  0.63368  0.27037  1.0000
  C   C52       1.0  0.46435  0.86140  0.38618  1.0000
  O   O7        1.0  0.06463  0.65438  0.23034  1.0000
  O   O8        1.0  0.43039  0.84071  0.42599  1.0000
  C   C53       1.0  0.99761  0.70192  0.31730  1.0000
  C   C54       1.0  0.96644  0.72288  0.37142  1.0000
  N   N13       1.0  0.96776  0.76681  0.37986  1.0000
  H   H25       1.0  0.94321  0.70568  0.40514  1.0000
  N   N14       1.0  0.99890  0.65757  0.31094  1.0000
  H   H26       1.0  0.97773  0.64164  0.34685  1.0000
  C   C55       1.0  0.29316  0.49736  0.31774  1.0000
  C   C56       1.0  0.27221  0.52858  0.37176  1.0000
  N   N15       1.0  0.22827  0.52732  0.38006  1.0000
  H   H27       1.0  0.28942  0.55180  0.40548  1.0000
  N   N16       1.0  0.33751  0.49603  0.31142  1.0000
  H   H28       1.0  0.35343  0.51724  0.34724  1.0000
  C   C57       1.0  0.55660  0.00469  0.36175  1.0000
  C   C58       1.0  0.58949  0.03745  0.36159  1.0000
  C   C59       1.0  0.57888  0.07902  0.32822  1.0000
  C   C60       1.0  0.98100  0.48101  0.32837  1.0000
  C   C61       1.0  0.90553  0.45766  0.29517  1.0000
  C   C62       1.0  0.93844  0.49040  0.29491  1.0000
  C   C63       1.0  0.93115  0.03158  0.25559  1.0000
  H   H29       1.0  0.59267  0.45648  0.43219  1.0000
  H   H30       1.0  0.90236  0.03863  0.22453  1.0000
  C   C64       1.0  0.63365  0.03097  0.38584  1.0000
  C   C65       1.0  0.86138  0.46421  0.27077  1.0000
  O   O9        1.0  0.65443  0.06489  0.42556  1.0000
  O   O10       1.0  0.84074  0.43020  0.23107  1.0000
  C   C66       1.0  0.52865  0.27218  0.28520  1.0000
  N   N17       1.0  0.52733  0.22825  0.27676  1.0000
  C   C67       1.0  0.49750  0.29314  0.33935  1.0000
  H   H31       1.0  0.55188  0.28938  0.25146  1.0000
  N   N18       1.0  0.49618  0.33749  0.34568  1.0000
  H   H32       1.0  0.51738  0.35340  0.30982  1.0000
  C   C68       1.0  0.72290  0.96634  0.28563  1.0000
  N   N19       1.0  0.76683  0.96762  0.27727  1.0000
  C   C69       1.0  0.70193  0.99761  0.33953  1.0000
  H   H33       1.0  0.70568  0.94312  0.25190  1.0000
  N   N20       1.0  0.65758  0.99902  0.34569  1.0000
  H   H34       1.0  0.64167  0.97778  0.30991  1.0000
  C   C70       1.0  0.51403  0.01408  0.32830  1.0000
  C   C71       1.0  0.53728  0.08956  0.29494  1.0000
  C   C72       1.0  0.50457  0.05662  0.29479  1.0000
  C   C73       1.0  0.56388  0.46352  0.40108  1.0000
  C   C74       1.0  0.96337  0.06384  0.25554  1.0000
  H   H35       1.0  0.60253  0.10270  0.32817  1.0000
  C   C75       1.0  0.99045  0.43848  0.36190  1.0000
  C   C76       1.0  0.95773  0.40555  0.36191  1.0000
  C   C77       1.0  0.91613  0.41609  0.32858  1.0000
  C   C78       1.0  0.53167  0.43125  0.40109  1.0000
  H   H36       1.0  0.89248  0.39242  0.32863  1.0000
  H   H37       1.0  0.53875  0.40249  0.43228  1.0000
  H   H38       1.0  0.95628  0.09262  0.22444  1.0000
  C   C79       1.0  0.53076  0.13367  0.27037  1.0000
  C   C80       1.0  0.96434  0.36141  0.38618  1.0000
  O   O11       1.0  0.56462  0.15438  0.23034  1.0000
  O   O12       1.0  0.93039  0.34071  0.42599  1.0000
  C   C81       1.0  0.49761  0.20192  0.31730  1.0000
  C   C82       1.0  0.46644  0.22288  0.37142  1.0000
  N   N21       1.0  0.46776  0.26681  0.37986  1.0000
  H   H39       1.0  0.44321  0.20568  0.40514  1.0000
  N   N22       1.0  0.49890  0.15757  0.31094  1.0000
  H   H40       1.0  0.47773  0.14164  0.34685  1.0000
  C   C83       1.0  0.79316  0.99736  0.31774  1.0000
  C   C84       1.0  0.77221  0.02858  0.37176  1.0000
  N   N23       1.0  0.72827  0.02732  0.38006  1.0000
  H   H41       1.0  0.78942  0.05180  0.40548  1.0000
  N   N24       1.0  0.83751  0.99603  0.31142  1.0000
  H   H42       1.0  0.85343  0.01724  0.34724  1.0000
  C   C85       1.0  0.55660  0.50469  0.36175  1.0000
  C   C86       1.0  0.58949  0.53745  0.36159  1.0000
  C   C87       1.0  0.57888  0.57902  0.32822  1.0000
  C   C88       1.0  0.98100  0.98101  0.32837  1.0000
  C   C89       1.0  0.90553  0.95766  0.29517  1.0000
  C   C90       1.0  0.93844  0.99040  0.29491  1.0000
  C   C91       1.0  0.93115  0.53158  0.25559  1.0000
  H   H43       1.0  0.59267  0.95648  0.43219  1.0000
  H   H44       1.0  0.90236  0.53863  0.22453  1.0000
  C   C92       1.0  0.63365  0.53097  0.38584  1.0000
  C   C93       1.0  0.86138  0.96421  0.27077  1.0000
  O   O13       1.0  0.65443  0.56489  0.42556  1.0000
  O   O14       1.0  0.84074  0.93020  0.23107  1.0000
  C   C94       1.0  0.52865  0.77218  0.28520  1.0000
  N   N25       1.0  0.52733  0.72825  0.27676  1.0000
  C   C95       1.0  0.49750  0.79314  0.33935  1.0000
  H   H45       1.0  0.55188  0.78938  0.25146  1.0000
  N   N26       1.0  0.49618  0.83749  0.34568  1.0000
  H   H46       1.0  0.51738  0.85340  0.30982  1.0000
  C   C96       1.0  0.72290  0.46634  0.28563  1.0000
  N   N27       1.0  0.76683  0.46762  0.27727  1.0000
  C   C97       1.0  0.70193  0.49761  0.33953  1.0000
  H   H47       1.0  0.70568  0.44313  0.25190  1.0000
  N   N28       1.0  0.65758  0.49902  0.34569  1.0000
  H   H48       1.0  0.64167  0.47778  0.30991  1.0000
  C   C98       1.0  0.51403  0.51408  0.32830  1.0000
  C   C99       1.0  0.53728  0.58956  0.29494  1.0000
  C   C100      1.0  0.50457  0.55662  0.29479  1.0000
  C   C101      1.0  0.56388  0.96351  0.40108  1.0000
  C   C102      1.0  0.96337  0.56384  0.25554  1.0000
  H   H49       1.0  0.60253  0.60270  0.32817  1.0000
  C   C103      1.0  0.99045  0.93847  0.36190  1.0000
  C   C104      1.0  0.95773  0.90555  0.36191  1.0000
  C   C105      1.0  0.91613  0.91609  0.32858  1.0000
  C   C106      1.0  0.53167  0.93125  0.40109  1.0000
  H   H50       1.0  0.89248  0.89242  0.32863  1.0000
  H   H51       1.0  0.53875  0.90249  0.43228  1.0000
  H   H52       1.0  0.95628  0.59262  0.22444  1.0000
  C   C107      1.0  0.53076  0.63368  0.27037  1.0000
  C   C108      1.0  0.96434  0.86140  0.38618  1.0000
  O   O15       1.0  0.56462  0.65438  0.23034  1.0000
  O   O16       1.0  0.93039  0.84071  0.42599  1.0000
  C   C109      1.0  0.49761  0.70192  0.31730  1.0000
  C   C110      1.0  0.46644  0.72288  0.37142  1.0000
  N   N29       1.0  0.46776  0.76681  0.37986  1.0000
  H   H53       1.0  0.44321  0.70568  0.40514  1.0000
  N   N30       1.0  0.49890  0.65757  0.31094  1.0000
  H   H54       1.0  0.47773  0.64164  0.34685  1.0000
  C   C111      1.0  0.79316  0.49736  0.31774  1.0000
  C   C112      1.0  0.77221  0.52858  0.37176  1.0000
  N   N31       1.0  0.72827  0.52732  0.38006  1.0000
  H   H55       1.0  0.78942  0.55180  0.40548  1.0000
  N   N32       1.0  0.83751  0.49603  0.31142  1.0000
  H   H56       1.0  0.85343  0.51724  0.34724  1.0000
