data_image0
_chemical_formula_structural       C2H2C2H2C2H2C2H2C2H2C2H2C4NC2NH2C4NC2NH2C4NC2NH2C4NC2NH2C4NC2NH2C4NC2NH2C4NC2NH2C4NC2NH2C4NC2NH2C4NC2NH2C4NC2NH2C4NC2NH2C6H3C6H3C6H3C6H3C6H3C6H3C6H3C6H3C6H3C6H3C6H3C6H3C4NC2NH2C4NC2NH2C4NC2NH2C4NC2NH2C4NC2NH2C4NC2NH2C2H2C2H2C2H2C2H2C2H2C2H2C2H2C2H2C2H2C2H2C2H2C2H2
_chemical_formula_sum              "C216 H108 N36"
_cell_length_a       37.604
_cell_length_b       37.604
_cell_length_c       14.8368
_cell_angle_alpha    90
_cell_angle_beta     90
_cell_angle_gamma    120

_space_group_name_H-M_alt    "P 1"
_space_group_IT_number       1

loop_
  _space_group_symop_operation_xyz
  'x, y, z'

loop_
  _atom_site_type_symbol
  _atom_site_label
  _atom_site_symmetry_multiplicity
  _atom_site_fract_x
  _atom_site_fract_y
  _atom_site_fract_z
  _atom_site_occupancy
  C   C1        1.0  0.19213  0.37320  0.26453  1.0000
  C   C2        1.0  0.21381  0.41654  0.26464  1.0000
  H   H1        1.0  0.22140  0.43170  0.20418  1.0000
  H   H2        1.0  0.18458  0.35810  0.20400  1.0000
  C   C3        1.0  0.63179  0.81290  0.26455  1.0000
  C   C4        1.0  0.58845  0.79122  0.26468  1.0000
  H   H3        1.0  0.57328  0.78363  0.20424  1.0000
  H   H4        1.0  0.64689  0.82045  0.20401  1.0000
  C   C5        1.0  0.19210  0.81292  0.26455  1.0000
  C   C6        1.0  0.21378  0.79126  0.26467  1.0000
  H   H5        1.0  0.22136  0.78368  0.20422  1.0000
  H   H6        1.0  0.18455  0.82047  0.20401  1.0000
  C   C7        1.0  0.81858  0.62610  0.26455  1.0000
  C   C8        1.0  0.79694  0.58276  0.26468  1.0000
  H   H7        1.0  0.78936  0.56759  0.20423  1.0000
  H   H8        1.0  0.82613  0.64120  0.20401  1.0000
  C   C9        1.0  0.37888  0.18642  0.26449  1.0000
  C   C10       1.0  0.42222  0.20808  0.26457  1.0000
  H   H9        1.0  0.43737  0.21566  0.20411  1.0000
  H   H10       1.0  0.36377  0.17887  0.20396  1.0000
  C   C11       1.0  0.81857  0.18651  0.26459  1.0000
  C   C12       1.0  0.79691  0.20819  0.26474  1.0000
  H   H11       1.0  0.78933  0.21578  0.20430  1.0000
  H   H12       1.0  0.82612  0.17896  0.20404  1.0000
  C   C13       1.0  0.22499  0.17519  0.34276  1.0000
  C   C14       1.0  0.21362  0.18604  0.26064  1.0000
  C   C15       1.0  0.19170  0.20794  0.26064  1.0000
  C   C16       1.0  0.18084  0.21930  0.34276  1.0000
  N   N1        1.0  0.18165  0.21754  0.17960  1.0000
  C   C17       1.0  0.19143  0.20731  0.09944  1.0000
  C   C18       1.0  0.21299  0.18576  0.09944  1.0000
  N   N2        1.0  0.22323  0.17599  0.17960  1.0000
  H   H13       1.0  0.18319  0.21522  0.04043  1.0000
  H   H14       1.0  0.22091  0.17753  0.04043  1.0000
  C   C19       1.0  0.82981  0.04383  0.34274  1.0000
  C   C20       1.0  0.81896  0.02160  0.26063  1.0000
  C   C21       1.0  0.79706  0.97778  0.26064  1.0000
  C   C22       1.0  0.78569  0.95555  0.34275  1.0000
  N   N3        1.0  0.78747  0.95812  0.17959  1.0000
  C   C23       1.0  0.79770  0.97813  0.09943  1.0000
  C   C24       1.0  0.81925  0.02124  0.09942  1.0000
  N   N4        1.0  0.82902  0.04126  0.17958  1.0000
  H   H15       1.0  0.78979  0.96198  0.04043  1.0000
  H   H16       1.0  0.82749  0.03739  0.04042  1.0000
  C   C25       1.0  0.96119  0.78002  0.34274  1.0000
  C   C26       1.0  0.98341  0.79139  0.26063  1.0000
  C   C27       1.0  0.02723  0.81330  0.26064  1.0000
  C   C28       1.0  0.04945  0.82416  0.34276  1.0000
  N   N5        1.0  0.04689  0.82336  0.17960  1.0000
  C   C29       1.0  0.02688  0.81358  0.09943  1.0000
  C   C30       1.0  0.98377  0.79202  0.09942  1.0000
  N   N6        1.0  0.96376  0.78178  0.17958  1.0000
  H   H17       1.0  0.04303  0.82182  0.04043  1.0000
  H   H18       1.0  0.96762  0.78410  0.04042  1.0000
  C   C31       1.0  0.78570  0.82417  0.34275  1.0000
  C   C32       1.0  0.79706  0.81330  0.26064  1.0000
  C   C33       1.0  0.81895  0.79138  0.26063  1.0000
  C   C34       1.0  0.82980  0.78000  0.34275  1.0000
  N   N7        1.0  0.82901  0.78178  0.17959  1.0000
  C   C35       1.0  0.81924  0.79202  0.09942  1.0000
  C   C36       1.0  0.79769  0.81359  0.09943  1.0000
  N   N8        1.0  0.78746  0.82337  0.17959  1.0000
  H   H19       1.0  0.82747  0.78411  0.04042  1.0000
  H   H20       1.0  0.78978  0.82183  0.04043  1.0000
  C   C37       1.0  0.18083  0.95554  0.34276  1.0000
  C   C38       1.0  0.19170  0.97776  0.26064  1.0000
  C   C39       1.0  0.21361  0.02158  0.26064  1.0000
  C   C40       1.0  0.22499  0.04381  0.34275  1.0000
  N   N9        1.0  0.22322  0.04124  0.17959  1.0000
  C   C41       1.0  0.21299  0.02123  0.09943  1.0000
  C   C42       1.0  0.19142  0.97811  0.09943  1.0000
  N   N10       1.0  0.18164  0.95810  0.17960  1.0000
  H   H21       1.0  0.22090  0.03738  0.04042  1.0000
  H   H22       1.0  0.18319  0.96196  0.04043  1.0000
  C   C43       1.0  0.04947  0.21932  0.34275  1.0000
  C   C44       1.0  0.02724  0.20795  0.26063  1.0000
  C   C45       1.0  0.98342  0.18605  0.26062  1.0000
  C   C46       1.0  0.96119  0.17520  0.34274  1.0000
  N   N11       1.0  0.96377  0.17600  0.17958  1.0000
  C   C47       1.0  0.98378  0.18577  0.09942  1.0000
  C   C48       1.0  0.02690  0.20732  0.09942  1.0000
  N   N12       1.0  0.04690  0.21755  0.17959  1.0000
  H   H23       1.0  0.96763  0.17754  0.04041  1.0000
  H   H24       1.0  0.04305  0.21523  0.04043  1.0000
  C   C49       1.0  0.22738  0.64921  0.34305  1.0000
  C   C50       1.0  0.22805  0.62999  0.26123  1.0000
  C   C51       1.0  0.22806  0.59209  0.26120  1.0000
  C   C52       1.0  0.22740  0.57219  0.34298  1.0000
  N   N13       1.0  0.23192  0.57709  0.18038  1.0000
  C   C53       1.0  0.23496  0.59586  0.10044  1.0000
  C   C54       1.0  0.23493  0.63316  0.10047  1.0000
  N   N14       1.0  0.23190  0.64887  0.18045  1.0000
  H   H25       1.0  0.23779  0.58327  0.04180  1.0000
  H   H26       1.0  0.23778  0.64860  0.04185  1.0000
  C   C55       1.0  0.35591  0.57220  0.34295  1.0000
  C   C56       1.0  0.37501  0.59198  0.26103  1.0000
  C   C57       1.0  0.41289  0.62990  0.26108  1.0000
  C   C58       1.0  0.43279  0.64915  0.34284  1.0000
  N   N15       1.0  0.42791  0.64880  0.18030  1.0000
  C   C59       1.0  0.40914  0.63308  0.10033  1.0000
  C   C60       1.0  0.37184  0.59576  0.10031  1.0000
  N   N16       1.0  0.35612  0.57696  0.18024  1.0000
  H   H27       1.0  0.42174  0.64852  0.04171  1.0000
  H   H28       1.0  0.35643  0.58317  0.04165  1.0000
  C   C61       1.0  0.43280  0.77763  0.34281  1.0000
  C   C62       1.0  0.41298  0.77706  0.26101  1.0000
  C   C63       1.0  0.37509  0.77707  0.26090  1.0000
  C   C64       1.0  0.35586  0.77771  0.34263  1.0000
  N   N17       1.0  0.35622  0.77322  0.18010  1.0000
  C   C65       1.0  0.37197  0.77017  0.10019  1.0000
  C   C66       1.0  0.40927  0.77014  0.10026  1.0000
  N   N18       1.0  0.42801  0.77317  0.18025  1.0000
  H   H29       1.0  0.35656  0.76733  0.04152  1.0000
  H   H30       1.0  0.42188  0.76730  0.04165  1.0000
  C   C67       1.0  0.78332  0.35027  0.34283  1.0000
  C   C68       1.0  0.78269  0.36939  0.26091  1.0000
  C   C69       1.0  0.78271  0.40730  0.26089  1.0000
  C   C70       1.0  0.78336  0.42709  0.34275  1.0000
  N   N19       1.0  0.77884  0.42232  0.18011  1.0000
  C   C71       1.0  0.77580  0.40353  0.10017  1.0000
  C   C72       1.0  0.77577  0.36620  0.10021  1.0000
  N   N20       1.0  0.77881  0.35047  0.18017  1.0000
  H   H31       1.0  0.77293  0.41610  0.04153  1.0000
  H   H32       1.0  0.77291  0.35076  0.04158  1.0000
  C   C73       1.0  0.65487  0.42712  0.34303  1.0000
  C   C74       1.0  0.63564  0.40722  0.26122  1.0000
  C   C75       1.0  0.59772  0.36933  0.26121  1.0000
  C   C76       1.0  0.57788  0.35018  0.34310  1.0000
  N   N21       1.0  0.58269  0.35045  0.18041  1.0000
  C   C77       1.0  0.60147  0.36616  0.10046  1.0000
  C   C78       1.0  0.63879  0.40348  0.10046  1.0000
  N   N22       1.0  0.65452  0.42223  0.18042  1.0000
  H   H33       1.0  0.58887  0.35075  0.04182  1.0000
  H   H34       1.0  0.65423  0.41605  0.04184  1.0000
  C   C79       1.0  0.57791  0.22170  0.34308  1.0000
  C   C80       1.0  0.59768  0.22236  0.26110  1.0000
  C   C81       1.0  0.63559  0.22237  0.26097  1.0000
  C   C82       1.0  0.65482  0.22171  0.34267  1.0000
  N   N23       1.0  0.65445  0.22624  0.18016  1.0000
  C   C83       1.0  0.63870  0.22929  0.10025  1.0000
  C   C84       1.0  0.60137  0.22927  0.10035  1.0000
  N   N24       1.0  0.58262  0.22622  0.18034  1.0000
  H   H35       1.0  0.65409  0.23212  0.04157  1.0000
  H   H36       1.0  0.58875  0.23209  0.04174  1.0000
  C   C85       1.0  0.09331  0.24124  0.34452  1.0000
  C   C86       1.0  0.11545  0.21990  0.34421  1.0000
  C   C87       1.0  0.15892  0.24123  0.34452  1.0000
  C   C88       1.0  0.18026  0.28470  0.34451  1.0000
  C   C89       1.0  0.15893  0.30685  0.34434  1.0000
  C   C90       1.0  0.11546  0.28471  0.34452  1.0000
  H   H37       1.0  0.21173  0.30043  0.34453  1.0000
  H   H38       1.0  0.09973  0.30045  0.34453  1.0000
  H   H39       1.0  0.09971  0.18843  0.34347  1.0000
  C   C91       1.0  0.76377  0.84609  0.34452  1.0000
  C   C92       1.0  0.78510  0.88957  0.34421  1.0000
  C   C93       1.0  0.76377  0.91171  0.34452  1.0000
  C   C94       1.0  0.72030  0.88957  0.34451  1.0000
  C   C95       1.0  0.69815  0.84609  0.34433  1.0000
  C   C96       1.0  0.72030  0.82476  0.34451  1.0000
  H   H40       1.0  0.70456  0.90530  0.34452  1.0000
  H   H41       1.0  0.70457  0.79329  0.34452  1.0000
  H   H42       1.0  0.81657  0.90530  0.34347  1.0000
  C   C97       1.0  0.15891  0.91170  0.34452  1.0000
  C   C98       1.0  0.11543  0.88956  0.34422  1.0000
  C   C99       1.0  0.09329  0.84608  0.34452  1.0000
  C   C100      1.0  0.11544  0.82475  0.34452  1.0000
  C   C101      1.0  0.15891  0.84608  0.34434  1.0000
  C   C102      1.0  0.18024  0.88956  0.34452  1.0000
  H   H43       1.0  0.09971  0.79328  0.34453  1.0000
  H   H44       1.0  0.21171  0.90530  0.34453  1.0000
  H   H45       1.0  0.09970  0.90529  0.34347  1.0000
  C   C103      1.0  0.91734  0.75809  0.34450  1.0000
  C   C104      1.0  0.89519  0.77941  0.34421  1.0000
  C   C105      1.0  0.85172  0.75808  0.34451  1.0000
  C   C106      1.0  0.83039  0.71460  0.34450  1.0000
  C   C107      1.0  0.85173  0.69246  0.34433  1.0000
  C   C108      1.0  0.89520  0.71461  0.34450  1.0000
  H   H46       1.0  0.79893  0.69886  0.34452  1.0000
  H   H47       1.0  0.91094  0.69888  0.34452  1.0000
  H   H48       1.0  0.91092  0.81088  0.34345  1.0000
  C   C109      1.0  0.24692  0.15327  0.34452  1.0000
  C   C110      1.0  0.22559  0.10980  0.34422  1.0000
  C   C111      1.0  0.24691  0.08765  0.34451  1.0000
  C   C112      1.0  0.29039  0.10979  0.34450  1.0000
  C   C113      1.0  0.31253  0.15327  0.34432  1.0000
  C   C114      1.0  0.29039  0.17460  0.34450  1.0000
  H   H49       1.0  0.30612  0.09405  0.34450  1.0000
  H   H50       1.0  0.30613  0.20607  0.34452  1.0000
  H   H51       1.0  0.19412  0.09406  0.34347  1.0000
  C   C115      1.0  0.85173  0.08767  0.34450  1.0000
  C   C116      1.0  0.89520  0.10981  0.34419  1.0000
  C   C117      1.0  0.91735  0.15329  0.34450  1.0000
  C   C118      1.0  0.89521  0.17462  0.34450  1.0000
  C   C119      1.0  0.85174  0.15330  0.34433  1.0000
  C   C120      1.0  0.83040  0.10982  0.34450  1.0000
  H   H52       1.0  0.91095  0.20609  0.34452  1.0000
  H   H53       1.0  0.79893  0.09409  0.34453  1.0000
  H   H54       1.0  0.91093  0.09408  0.34345  1.0000
  C   C121      1.0  0.31253  0.54832  0.34528  1.0000
  C   C122      1.0  0.29023  0.56937  0.34508  1.0000
  C   C123      1.0  0.24687  0.54831  0.34529  1.0000
  C   C124      1.0  0.22545  0.50488  0.34500  1.0000
  C   C125      1.0  0.24694  0.48280  0.34480  1.0000
  C   C126      1.0  0.29052  0.50489  0.34500  1.0000
  H   H55       1.0  0.19400  0.48928  0.34477  1.0000
  H   H56       1.0  0.30638  0.48929  0.34477  1.0000
  H   H57       1.0  0.30600  0.60091  0.34444  1.0000
  C   C127      1.0  0.45668  0.75815  0.34551  1.0000
  C   C128      1.0  0.43562  0.71480  0.34527  1.0000
  C   C129      1.0  0.45667  0.69249  0.34551  1.0000
  C   C130      1.0  0.50010  0.71450  0.34512  1.0000
  C   C131      1.0  0.52220  0.75808  0.34489  1.0000
  C   C132      1.0  0.50011  0.77958  0.34507  1.0000
  H   H58       1.0  0.51570  0.69865  0.34482  1.0000
  H   H59       1.0  0.51571  0.81103  0.34474  1.0000
  H   H60       1.0  0.40408  0.69903  0.34453  1.0000
  C   C133      1.0  0.24685  0.69256  0.34539  1.0000
  C   C134      1.0  0.29020  0.71486  0.34513  1.0000
  C   C135      1.0  0.31250  0.75822  0.34541  1.0000
  C   C136      1.0  0.29049  0.77964  0.34499  1.0000
  C   C137      1.0  0.24691  0.75814  0.34485  1.0000
  C   C138      1.0  0.22542  0.71456  0.34514  1.0000
  H   H61       1.0  0.30633  0.81109  0.34464  1.0000
  H   H62       1.0  0.19397  0.69870  0.34493  1.0000
  H   H63       1.0  0.30598  0.69910  0.34442  1.0000
  C   C139      1.0  0.69823  0.45099  0.34535  1.0000
  C   C140      1.0  0.72052  0.42993  0.34510  1.0000
  C   C141      1.0  0.76387  0.45097  0.34539  1.0000
  C   C142      1.0  0.78530  0.49441  0.34502  1.0000
  C   C143      1.0  0.76382  0.51650  0.34487  1.0000
  C   C144      1.0  0.72024  0.49442  0.34512  1.0000
  H   H64       1.0  0.81675  0.51000  0.34472  1.0000
  H   H65       1.0  0.70439  0.51002  0.34490  1.0000
  H   H66       1.0  0.70474  0.39839  0.34440  1.0000
  C   C145      1.0  0.55401  0.24117  0.34532  1.0000
  C   C146      1.0  0.57505  0.28452  0.34518  1.0000
  C   C147      1.0  0.55399  0.30682  0.34527  1.0000
  C   C148      1.0  0.51056  0.28480  0.34493  1.0000
  C   C149      1.0  0.48848  0.24122  0.34470  1.0000
  C   C150      1.0  0.51058  0.21974  0.34491  1.0000
  H   H67       1.0  0.49496  0.30065  0.34471  1.0000
  H   H68       1.0  0.49499  0.18829  0.34468  1.0000
  H   H69       1.0  0.60660  0.30030  0.34462  1.0000
  C   C151      1.0  0.76383  0.30689  0.34551  1.0000
  C   C152      1.0  0.72048  0.28458  0.34513  1.0000
  C   C153      1.0  0.69819  0.24122  0.34545  1.0000
  C   C154      1.0  0.72021  0.21981  0.34514  1.0000
  C   C155      1.0  0.76379  0.24131  0.34498  1.0000
  C   C156      1.0  0.78527  0.28489  0.34518  1.0000
  H   H70       1.0  0.70436  0.18836  0.34483  1.0000
  H   H71       1.0  0.81672  0.30075  0.34491  1.0000
  H   H72       1.0  0.70470  0.30034  0.34433  1.0000
  C   C157      1.0  0.22502  0.43896  0.34626  1.0000
  C   C158      1.0  0.21388  0.41669  0.42832  1.0000
  C   C159      1.0  0.19195  0.37288  0.42820  1.0000
  C   C160      1.0  0.18086  0.35069  0.34604  1.0000
  N   N25       1.0  0.18209  0.35318  0.50920  1.0000
  C   C161      1.0  0.19207  0.37314  0.58942  1.0000
  C   C162      1.0  0.21364  0.41626  0.58952  1.0000
  N   N26       1.0  0.22368  0.43630  0.50941  1.0000
  H   H73       1.0  0.18397  0.35696  0.64838  1.0000
  H   H74       1.0  0.22170  0.43237  0.64857  1.0000
  C   C163      1.0  0.56604  0.78000  0.34631  1.0000
  C   C164      1.0  0.58832  0.79115  0.42835  1.0000
  C   C165      1.0  0.63213  0.81307  0.42822  1.0000
  C   C166      1.0  0.65431  0.82416  0.34605  1.0000
  N   N27       1.0  0.65184  0.82293  0.50921  1.0000
  C   C167      1.0  0.63189  0.81295  0.58944  1.0000
  C   C168      1.0  0.58877  0.79138  0.58956  1.0000
  N   N28       1.0  0.56871  0.78134  0.50946  1.0000
  H   H75       1.0  0.64807  0.82105  0.64838  1.0000
  H   H76       1.0  0.57266  0.78332  0.64862  1.0000
  C   C169      1.0  0.22498  0.78005  0.34630  1.0000
  C   C170      1.0  0.21384  0.79118  0.42834  1.0000
  C   C171      1.0  0.19193  0.81308  0.42822  1.0000
  C   C172      1.0  0.18083  0.82417  0.34605  1.0000
  N   N29       1.0  0.18207  0.82293  0.50922  1.0000
  C   C173      1.0  0.19206  0.81295  0.58944  1.0000
  C   C174      1.0  0.21362  0.79140  0.58956  1.0000
  N   N30       1.0  0.22365  0.78138  0.50945  1.0000
  H   H77       1.0  0.18396  0.82104  0.64840  1.0000
  H   H78       1.0  0.22168  0.78335  0.64861  1.0000
  C   C175      1.0  0.78573  0.56034  0.34630  1.0000
  C   C176      1.0  0.79685  0.58262  0.42834  1.0000
  C   C177      1.0  0.81874  0.62644  0.42821  1.0000
  C   C178      1.0  0.82982  0.64862  0.34605  1.0000
  N   N31       1.0  0.82857  0.64614  0.50920  1.0000
  C   C179      1.0  0.81860  0.62619  0.58943  1.0000
  C   C180      1.0  0.79706  0.58307  0.58956  1.0000
  N   N32       1.0  0.78705  0.56302  0.50945  1.0000
  H   H79       1.0  0.82668  0.64237  0.64838  1.0000
  H   H80       1.0  0.78901  0.56696  0.64861  1.0000
  C   C181      1.0  0.44465  0.21930  0.34618  1.0000
  C   C182      1.0  0.42238  0.20818  0.42825  1.0000
  C   C183      1.0  0.37857  0.18628  0.42815  1.0000
  C   C184      1.0  0.35638  0.17518  0.34601  1.0000
  N   N33       1.0  0.35888  0.17644  0.50916  1.0000
  C   C185      1.0  0.37884  0.18643  0.58937  1.0000
  C   C186      1.0  0.42196  0.20798  0.58946  1.0000
  N   N34       1.0  0.44200  0.21799  0.50934  1.0000
  H   H81       1.0  0.36267  0.17835  0.64834  1.0000
  H   H82       1.0  0.43808  0.21604  0.64850  1.0000
  C   C187      1.0  0.78571  0.21940  0.34638  1.0000
  C   C188      1.0  0.79684  0.20823  0.42840  1.0000
  C   C189      1.0  0.81874  0.18631  0.42825  1.0000
  C   C190      1.0  0.82982  0.17523  0.34607  1.0000
  N   N35       1.0  0.82858  0.17644  0.50923  1.0000
  C   C191      1.0  0.81860  0.18641  0.58946  1.0000
  C   C192      1.0  0.79706  0.20798  0.58962  1.0000
  N   N36       1.0  0.78704  0.21803  0.50953  1.0000
  H   H83       1.0  0.82669  0.17830  0.64841  1.0000
  H   H84       1.0  0.78900  0.21603  0.64868  1.0000
  C   C193      1.0  0.19234  0.20833  0.42431  1.0000
  C   C194      1.0  0.21401  0.18668  0.42431  1.0000
  H   H85       1.0  0.22176  0.17930  0.48481  1.0000
  H   H86       1.0  0.18496  0.21608  0.48481  1.0000
  C   C195      1.0  0.79666  0.97803  0.42430  1.0000
  C   C196      1.0  0.81832  0.02136  0.42429  1.0000
  H   H87       1.0  0.82569  0.03649  0.48480  1.0000
  H   H88       1.0  0.78892  0.96290  0.48480  1.0000
  C   C197      1.0  0.02698  0.81266  0.42431  1.0000
  C   C198      1.0  0.98365  0.79099  0.42430  1.0000
  H   H89       1.0  0.96852  0.78324  0.48480  1.0000
  H   H90       1.0  0.04211  0.82004  0.48481  1.0000
  C   C199      1.0  0.81831  0.79098  0.42430  1.0000
  C   C200      1.0  0.79666  0.81266  0.42430  1.0000
  H   H91       1.0  0.78892  0.82005  0.48480  1.0000
  H   H92       1.0  0.82569  0.78323  0.48480  1.0000
  C   C201      1.0  0.21400  0.02134  0.42430  1.0000
  C   C202      1.0  0.19233  0.97801  0.42431  1.0000
  H   H93       1.0  0.18494  0.96288  0.48481  1.0000
  H   H94       1.0  0.22175  0.03647  0.48480  1.0000
  C   C203      1.0  0.98366  0.18669  0.42429  1.0000
  C   C204      1.0  0.02699  0.20835  0.42430  1.0000
  H   H95       1.0  0.04212  0.21609  0.48480  1.0000
  H   H96       1.0  0.96854  0.17932  0.48479  1.0000
  C   C205      1.0  0.22656  0.59154  0.42414  1.0000
  C   C206      1.0  0.22658  0.62901  0.42416  1.0000
  H   H97       1.0  0.23054  0.64374  0.48459  1.0000
  H   H98       1.0  0.23055  0.58079  0.48457  1.0000
  C   C207      1.0  0.41341  0.62899  0.42407  1.0000
  C   C208      1.0  0.37601  0.59145  0.42421  1.0000
  H   H99       1.0  0.36118  0.58081  0.48459  1.0000
  H   H100      1.0  0.42414  0.64379  0.48444  1.0000
  C   C209      1.0  0.37591  0.77840  0.42393  1.0000
  C   C210      1.0  0.41332  0.77830  0.42395  1.0000
  H   H101      1.0  0.42400  0.77423  0.48441  1.0000
  H   H102      1.0  0.36111  0.77429  0.48433  1.0000
  C   C211      1.0  0.78414  0.40782  0.42412  1.0000
  C   C212      1.0  0.78410  0.37033  0.42415  1.0000
  H   H103      1.0  0.77989  0.35547  0.48449  1.0000
  H   H104      1.0  0.77992  0.41847  0.48446  1.0000
  C   C213      1.0  0.59719  0.37034  0.42426  1.0000
  C   C214      1.0  0.63468  0.40778  0.42419  1.0000
  H   H105      1.0  0.64943  0.41857  0.48460  1.0000
  H   H106      1.0  0.58644  0.35561  0.48469  1.0000
  C   C215      1.0  0.63476  0.22094  0.42403  1.0000
  C   C216      1.0  0.59724  0.22084  0.42422  1.0000
  H   H107      1.0  0.58665  0.22504  0.48463  1.0000
  H   H108      1.0  0.64960  0.22501  0.48437  1.0000
