data_image0
_chemical_formula_structural       C6H4NHC6H4NHC6H4NHCNCNCNC18H12C3O3CNCNCNC18H12C3O3C4H2C2H2NHC4H2C2H2NHC4H2C2H2NH
_chemical_formula_sum              "C84 H54 N12 O6"
_cell_length_a       44.283
_cell_length_b       44.2824
_cell_length_c       15.0648
_cell_angle_alpha    90
_cell_angle_beta     90
_cell_angle_gamma    120

_space_group_name_H-M_alt    "P 1"
_space_group_IT_number       1

loop_
  _space_group_symop_operation_xyz
  'x, y, z'

loop_
  _atom_site_type_symbol
  _atom_site_label
  _atom_site_symmetry_multiplicity
  _atom_site_fract_x
  _atom_site_fract_y
  _atom_site_fract_z
  _atom_site_occupancy
  C   C1        1.0  0.54830  0.47428  0.27376  1.0000
  C   C2        1.0  0.52888  0.49123  0.26329  1.0000
  C   C3        1.0  0.48520  0.50582  0.31882  1.0000
  C   C4        1.0  0.46886  0.50467  0.23708  1.0000
  C   C5        1.0  0.44922  0.52146  0.22715  1.0000
  C   C6        1.0  0.44468  0.53909  0.29937  1.0000
  H   H1        1.0  0.47066  0.49117  0.18414  1.0000
  H   H2        1.0  0.43758  0.52011  0.16744  1.0000
  H   H3        1.0  0.56421  0.47552  0.22298  1.0000
  H   H4        1.0  0.53240  0.50544  0.20674  1.0000
  N   N1        1.0  0.42641  0.55612  0.28874  1.0000
  H   H5        1.0  0.43111  0.57014  0.23508  1.0000
  C   C7        1.0  0.52121  0.07426  0.27210  1.0000
  C   C8        1.0  0.50423  0.03787  0.26196  1.0000
  C   C9        1.0  0.48980  0.97969  0.31765  1.0000
  C   C10       1.0  0.49100  0.96453  0.23589  1.0000
  C   C11       1.0  0.47417  0.92813  0.22581  1.0000
  C   C12       1.0  0.45644  0.90591  0.29788  1.0000
  H   H6        1.0  0.50453  0.97986  0.18302  1.0000
  H   H7        1.0  0.47553  0.91787  0.16605  1.0000
  H   H8        1.0  0.51991  0.08885  0.22122  1.0000
  H   H9        1.0  0.48997  0.02711  0.20552  1.0000
  N   N2        1.0  0.43932  0.87062  0.28691  1.0000
  H   H10       1.0  0.42554  0.86144  0.23285  1.0000
  C   C13       1.0  0.91911  0.46177  0.27745  1.0000
  C   C14       1.0  0.95547  0.48170  0.26772  1.0000
  C   C15       1.0  0.01480  0.50558  0.32842  1.0000
  C   C16       1.0  0.03111  0.50182  0.25176  1.0000
  C   C17       1.0  0.06751  0.52119  0.24173  1.0000
  C   C18       1.0  0.08877  0.54545  0.30703  1.0000
  H   H11       1.0  0.01674  0.48419  0.20345  1.0000
  H   H12       1.0  0.07851  0.51745  0.18607  1.0000
  H   H13       1.0  0.90356  0.46013  0.22527  1.0000
  H   H14       1.0  0.96533  0.49391  0.20831  1.0000
  N   N3        1.0  0.12431  0.56224  0.29811  1.0000
  H   H15       1.0  0.13376  0.54933  0.26765  1.0000
  C   C19       1.0  0.29473  0.65174  0.32463  1.0000
  N   N4        1.0  0.30879  0.63062  0.32744  1.0000
  C   C20       1.0  0.34374  0.64314  0.32931  1.0000
  N   N5        1.0  0.36487  0.67833  0.32898  1.0000
  C   C21       1.0  0.35237  0.70076  0.32641  1.0000
  N   N6        1.0  0.31719  0.68668  0.32419  1.0000
  C   C22       1.0  0.35772  0.62041  0.33191  1.0000
  C   C23       1.0  0.33645  0.58450  0.35166  1.0000
  C   C24       1.0  0.35057  0.56229  0.35588  1.0000
  C   C25       1.0  0.38626  0.57509  0.33809  1.0000
  C   C26       1.0  0.40756  0.61087  0.31797  1.0000
  C   C27       1.0  0.39356  0.63315  0.31541  1.0000
  C   C28       1.0  0.25801  0.63786  0.32334  1.0000
  C   C29       1.0  0.23488  0.60195  0.33876  1.0000
  C   C30       1.0  0.19862  0.58814  0.33848  1.0000
  C   C31       1.0  0.18397  0.60959  0.32182  1.0000
  C   C32       1.0  0.20700  0.64556  0.30743  1.0000
  C   C33       1.0  0.24334  0.65941  0.30788  1.0000
  C   C34       1.0  0.37512  0.73747  0.32792  1.0000
  C   C35       1.0  0.36243  0.76054  0.31032  1.0000
  C   C36       1.0  0.38463  0.79683  0.31343  1.0000
  C   C37       1.0  0.42027  0.81136  0.33513  1.0000
  C   C38       1.0  0.43306  0.78851  0.35363  1.0000
  C   C39       1.0  0.41094  0.75217  0.34893  1.0000
  H   H16       1.0  0.18309  0.56224  0.35291  1.0000
  H   H17       1.0  0.24410  0.58535  0.35205  1.0000
  H   H18       1.0  0.19756  0.66207  0.29534  1.0000
  H   H19       1.0  0.25892  0.68554  0.29629  1.0000
  H   H20       1.0  0.33674  0.75126  0.29513  1.0000
  H   H21       1.0  0.37413  0.81250  0.30235  1.0000
  H   H22       1.0  0.42129  0.73660  0.36322  1.0000
  H   H23       1.0  0.45871  0.79810  0.36991  1.0000
  H   H24       1.0  0.41006  0.65889  0.30092  1.0000
  H   H25       1.0  0.43376  0.62136  0.30736  1.0000
  H   H26       1.0  0.33440  0.53654  0.37101  1.0000
  H   H27       1.0  0.31045  0.57412  0.36496  1.0000
  C   C40       1.0  0.14721  0.59561  0.32349  1.0000
  C   C41       1.0  0.44210  0.84797  0.34280  1.0000
  C   C42       1.0  0.40094  0.55315  0.34479  1.0000
  O   O1        1.0  0.38876  0.52856  0.40941  1.0000
  O   O2        1.0  0.46644  0.86021  0.40802  1.0000
  O   O3        1.0  0.13505  0.61716  0.34671  1.0000
  C   C43       1.0  0.69910  0.34520  0.33125  1.0000
  N   N7        1.0  0.68529  0.36653  0.33385  1.0000
  C   C44       1.0  0.65040  0.35427  0.33571  1.0000
  N   N8        1.0  0.62907  0.31911  0.33516  1.0000
  C   C45       1.0  0.64130  0.29645  0.33277  1.0000
  N   N9        1.0  0.67646  0.31029  0.33057  1.0000
  C   C46       1.0  0.63672  0.37727  0.33661  1.0000
  C   C47       1.0  0.65845  0.41353  0.35108  1.0000
  C   C48       1.0  0.64477  0.43616  0.35088  1.0000
  C   C49       1.0  0.60881  0.42334  0.33672  1.0000
  C   C50       1.0  0.58720  0.38721  0.32091  1.0000
  C   C51       1.0  0.60083  0.36461  0.32133  1.0000
  C   C52       1.0  0.73578  0.35894  0.32849  1.0000
  C   C53       1.0  0.75909  0.39471  0.34536  1.0000
  C   C54       1.0  0.79534  0.40853  0.34209  1.0000
  C   C55       1.0  0.80958  0.38711  0.32100  1.0000
  C   C56       1.0  0.78650  0.35148  0.30292  1.0000
  C   C57       1.0  0.75020  0.33755  0.30772  1.0000
  C   C58       1.0  0.61825  0.25976  0.33252  1.0000
  C   C59       1.0  0.63086  0.23652  0.31651  1.0000
  C   C60       1.0  0.60827  0.20028  0.31652  1.0000
  C   C61       1.0  0.57222  0.18577  0.33346  1.0000
  C   C62       1.0  0.55942  0.20890  0.34806  1.0000
  C   C63       1.0  0.58204  0.24521  0.34793  1.0000
  H   H28       1.0  0.81118  0.43468  0.35293  1.0000
  H   H29       1.0  0.75004  0.41131  0.36044  1.0000
  H   H30       1.0  0.79589  0.33522  0.28707  1.0000
  H   H31       1.0  0.73444  0.31161  0.29410  1.0000
  H   H32       1.0  0.65667  0.24565  0.30336  1.0000
  H   H33       1.0  0.61854  0.18467  0.30199  1.0000
  H   H34       1.0  0.57161  0.26087  0.35999  1.0000
  H   H35       1.0  0.53350  0.19955  0.36038  1.0000
  H   H36       1.0  0.58411  0.33876  0.30859  1.0000
  H   H37       1.0  0.56130  0.37689  0.30657  1.0000
  H   H38       1.0  0.66140  0.46214  0.36234  1.0000
  H   H39       1.0  0.68459  0.42398  0.36247  1.0000
  C   C64       1.0  0.84617  0.40161  0.31370  1.0000
  C   C65       1.0  0.54934  0.14902  0.33210  1.0000
  C   C66       1.0  0.59495  0.44622  0.33456  1.0000
  O   O4        1.0  0.61655  0.47983  0.31063  1.0000
  O   O5        1.0  0.51564  0.13692  0.30894  1.0000
  O   O6        1.0  0.85833  0.38935  0.24867  1.0000
  C   C67       1.0  0.54489  0.45469  0.35107  1.0000
  C   C68       1.0  0.50512  0.48888  0.32944  1.0000
  C   C69       1.0  0.50135  0.46886  0.40620  1.0000
  C   C70       1.0  0.52070  0.45182  0.41642  1.0000
  H   H40       1.0  0.48379  0.46572  0.45462  1.0000
  H   H41       1.0  0.51698  0.43716  0.47221  1.0000
  C   C71       1.0  0.46145  0.54087  0.38054  1.0000
  C   C72       1.0  0.48140  0.52446  0.39013  1.0000
  H   H42       1.0  0.45979  0.55474  0.43279  1.0000
  H   H43       1.0  0.49362  0.52680  0.44952  1.0000
  N   N10       1.0  0.56165  0.43592  0.36022  1.0000
  H   H44       1.0  0.54878  0.41367  0.39120  1.0000
  C   C73       1.0  0.54091  0.09054  0.34918  1.0000
  C   C74       1.0  0.50668  0.01655  0.32820  1.0000
  C   C75       1.0  0.52676  0.03289  0.40482  1.0000
  C   C76       1.0  0.54384  0.06930  0.41469  1.0000
  H   H45       1.0  0.52995  0.01852  0.45329  1.0000
  H   H46       1.0  0.55858  0.08033  0.47032  1.0000
  C   C77       1.0  0.45466  0.92087  0.37913  1.0000
  C   C78       1.0  0.47113  0.95722  0.38889  1.0000
  H   H47       1.0  0.44073  0.90531  0.43127  1.0000
  H   H48       1.0  0.46878  0.96709  0.44828  1.0000
  N   N11       1.0  0.55973  0.12609  0.35782  1.0000
  H   H49       1.0  0.58209  0.13553  0.38826  1.0000
  C   C79       1.0  0.90416  0.44509  0.35874  1.0000
  C   C80       1.0  0.97794  0.48559  0.33903  1.0000
  C   C81       1.0  0.96278  0.46928  0.42083  1.0000
  C   C82       1.0  0.92638  0.44968  0.43089  1.0000
  H   H50       1.0  0.97812  0.47117  0.47379  1.0000
  H   H51       1.0  0.91612  0.43812  0.49071  1.0000
  C   C83       1.0  0.07253  0.54887  0.38420  1.0000
  C   C84       1.0  0.03615  0.52942  0.39452  1.0000
  H   H52       1.0  0.08714  0.56484  0.43493  1.0000
  H   H53       1.0  0.02541  0.53295  0.45098  1.0000
  N   N12       1.0  0.86886  0.42697  0.36968  1.0000
  H   H54       1.0  0.85970  0.43165  0.42364  1.0000
