data_image0
_chemical_formula_structural       C2HC2HC6N2HCH3OC9HC7HCH4N3C8HC7HCH4N4C3HNO2HC3HNO2CHC3HNO2CHC3HNO2CHC3HNO2CHC3HNO2CHC6H2N3C3NO2CHC3HNO2CHC3HNOC3HNO2CHC3HNO2CHC3HNO2CH
_chemical_formula_sum              "C96 H42 N24 O24"
_cell_length_a       30.6319
_cell_length_b       30.6319
_cell_length_c       14.8241
_cell_angle_alpha    90.0004
_cell_angle_beta     89.9996
_cell_angle_gamma    120

_space_group_name_H-M_alt    "P 1"
_space_group_IT_number       1

loop_
  _space_group_symop_operation_xyz
  'x, y, z'

loop_
  _atom_site_type_symbol
  _atom_site_label
  _atom_site_symmetry_multiplicity
  _atom_site_fract_x
  _atom_site_fract_y
  _atom_site_fract_z
  _atom_site_occupancy
  C   C1        1.0  0.05119  0.55555  0.34705  1.0000
  C   C2        1.0  0.05175  0.46348  0.35501  1.0000
  H   H1        1.0  0.05168  0.43004  0.35507  1.0000
  C   C3        1.0  0.05022  0.60208  0.34706  1.0000
  C   C4        1.0  0.04966  0.69415  0.35508  1.0000
  H   H2        1.0  0.04974  0.72760  0.35513  1.0000
  C   C5        1.0  0.09838  0.50894  0.34928  1.0000
  C   C6        1.0  0.09790  0.55545  0.34860  1.0000
  C   C7        1.0  0.14237  0.60268  0.35744  1.0000
  C   C8        1.0  0.09634  0.69538  0.35306  1.0000
  C   C9        1.0  0.09637  0.64901  0.34947  1.0000
  C   C10       1.0  0.14192  0.64811  0.35541  1.0000
  N   N1        1.0  0.13904  0.50189  0.34334  1.0000
  N   N2        1.0  0.14117  0.73956  0.35253  1.0000
  H   H3        1.0  0.13094  0.79911  0.37989  1.0000
  C   C11       1.0  0.18818  0.53005  0.31876  1.0000
  H   H4        1.0  0.17568  0.68067  0.36337  1.0000
  H   H5        1.0  0.17594  0.60534  0.37248  1.0000
  H   H6        1.0  0.17756  0.44363  0.38348  1.0000
  O   O1        1.0  0.18831  0.92427  0.36458  1.0000
  C   C12       1.0  0.15711  0.78934  0.36197  1.0000
  C   C13       1.0  0.57397  0.60257  0.34705  1.0000
  C   C14       1.0  0.62090  0.60335  0.34945  1.0000
  C   C15       1.0  0.66727  0.64975  0.35302  1.0000
  C   C16       1.0  0.66604  0.69520  0.35503  1.0000
  C   C17       1.0  0.62057  0.69636  0.34933  1.0000
  C   C18       1.0  0.57407  0.64938  0.34860  1.0000
  C   C19       1.0  0.62000  0.55690  0.35545  1.0000
  C   C20       1.0  0.52684  0.64662  0.35732  1.0000
  H   H7        1.0  0.69949  0.72858  0.35508  1.0000
  C   C21       1.0  0.52744  0.55507  0.34704  1.0000
  C   C22       1.0  0.52734  0.50826  0.34862  1.0000
  C   C23       1.0  0.48084  0.46127  0.34929  1.0000
  C   C24       1.0  0.43537  0.46244  0.35493  1.0000
  C   C25       1.0  0.43414  0.50789  0.35297  1.0000
  C   C26       1.0  0.48051  0.55429  0.34938  1.0000
  C   C27       1.0  0.57457  0.51103  0.35750  1.0000
  H   H8        1.0  0.40193  0.42906  0.35506  1.0000
  C   C28       1.0  0.48142  0.60074  0.35538  1.0000
  H   H9        1.0  0.57724  0.48011  0.37244  1.0000
  H   H10       1.0  0.65256  0.55570  0.36332  1.0000
  H   H11       1.0  0.44886  0.60194  0.36333  1.0000
  H   H12       1.0  0.52416  0.67750  0.37254  1.0000
  N   N3        1.0  0.62763  0.74407  0.34337  1.0000
  N   N4        1.0  0.38996  0.50855  0.35245  1.0000
  N   N5        1.0  0.47378  0.41356  0.34334  1.0000
  C   C29       1.0  0.52695  0.07833  0.34688  1.0000
  C   C30       1.0  0.52618  0.12448  0.34932  1.0000
  C   C31       1.0  0.47978  0.12445  0.35296  1.0000
  C   C32       1.0  0.43433  0.07777  0.35496  1.0000
  C   C33       1.0  0.43316  0.03115  0.34924  1.0000
  C   C34       1.0  0.48014  0.03163  0.34843  1.0000
  C   C35       1.0  0.57263  0.17004  0.35525  1.0000
  C   C36       1.0  0.48291  0.98716  0.35724  1.0000
  H   H13       1.0  0.40095  0.07785  0.35514  1.0000
  C   C37       1.0  0.57446  0.07930  0.34687  1.0000
  C   C38       1.0  0.62126  0.12601  0.34843  1.0000
  C   C39       1.0  0.66825  0.12649  0.34919  1.0000
  C   C40       1.0  0.66708  0.07986  0.35486  1.0000
  C   C41       1.0  0.62163  0.03318  0.35289  1.0000
  C   C42       1.0  0.57523  0.03315  0.34925  1.0000
  C   C43       1.0  0.61850  0.17048  0.35728  1.0000
  H   H14       1.0  0.70046  0.07979  0.35511  1.0000
  C   C44       1.0  0.52878  0.98760  0.35519  1.0000
  H   H15       1.0  0.64940  0.20402  0.37254  1.0000
  H   H16       1.0  0.57382  0.20378  0.36342  1.0000
  H   H17       1.0  0.52758  0.95386  0.36339  1.0000
  H   H18       1.0  0.45203  0.95361  0.37254  1.0000
  N   N6        1.0  0.38544  0.99048  0.34335  1.0000
  N   N7        1.0  0.48044  0.16929  0.35245  1.0000
  N   N8        1.0  0.62098  0.98835  0.35239  1.0000
  N   N9        1.0  0.71597  0.16715  0.34331  1.0000
  C   C45       1.0  0.22563  0.51607  0.32915  1.0000
  C   C46       1.0  0.27676  0.54989  0.30544  1.0000
  C   C47       1.0  0.31385  0.53575  0.31871  1.0000
  H   H19       1.0  0.35014  0.56099  0.30048  1.0000
  N   N10       1.0  0.29093  0.59813  0.26955  1.0000
  O   O2        1.0  0.30885  0.60363  0.19139  1.0000
  O   O3        1.0  0.32232  0.63314  0.31896  1.0000
  H   H20       1.0  0.19826  0.56306  0.28648  1.0000
  C   C48       1.0  0.61345  0.81649  0.32915  1.0000
  C   C49       1.0  0.57963  0.83380  0.30542  1.0000
  C   C50       1.0  0.59376  0.88502  0.31871  1.0000
  H   H21       1.0  0.56853  0.89608  0.30040  1.0000
  N   N11       1.0  0.53140  0.79973  0.26948  1.0000
  O   O4        1.0  0.52592  0.81216  0.19132  1.0000
  O   O5        1.0  0.49637  0.79610  0.31887  1.0000
  C   C51       1.0  0.59947  0.76505  0.31878  1.0000
  H   H22       1.0  0.56645  0.74212  0.28653  1.0000
  C   C52       1.0  0.31303  0.90389  0.32920  1.0000
  C   C53       1.0  0.29572  0.85275  0.30552  1.0000
  C   C54       1.0  0.24450  0.81566  0.31881  1.0000
  H   H23       1.0  0.23344  0.77937  0.30054  1.0000
  N   N12       1.0  0.32979  0.83858  0.26959  1.0000
  O   O6        1.0  0.31736  0.82066  0.19144  1.0000
  O   O7        1.0  0.33343  0.80720  0.31900  1.0000
  C   C55       1.0  0.36447  0.94134  0.31880  1.0000
  H   H24       1.0  0.38739  0.93125  0.28654  1.0000
  C   C56       1.0  0.87578  0.64157  0.32920  1.0000
  C   C57       1.0  0.82465  0.60775  0.30550  1.0000
  C   C58       1.0  0.78756  0.62188  0.31875  1.0000
  H   H25       1.0  0.75126  0.59664  0.30053  1.0000
  N   N13       1.0  0.81047  0.55950  0.26960  1.0000
  O   O8        1.0  0.79256  0.55400  0.19145  1.0000
  O   O9        1.0  0.77909  0.52449  0.31902  1.0000
  C   C59       1.0  0.91324  0.62759  0.31881  1.0000
  H   H26       1.0  0.90314  0.59456  0.28658  1.0000
  C   C60       1.0  0.48796  0.34115  0.32915  1.0000
  C   C61       1.0  0.52178  0.32383  0.30544  1.0000
  C   C62       1.0  0.50764  0.27260  0.31870  1.0000
  H   H27       1.0  0.53288  0.26155  0.30046  1.0000
  N   N14       1.0  0.57001  0.35790  0.26952  1.0000
  O   O10       1.0  0.57551  0.34548  0.19136  1.0000
  O   O11       1.0  0.60503  0.36153  0.31892  1.0000
  C   C63       1.0  0.50194  0.39258  0.31877  1.0000
  H   H28       1.0  0.53495  0.41550  0.28648  1.0000
  C   C64       1.0  0.78838  0.25375  0.32916  1.0000
  C   C65       1.0  0.80569  0.30489  0.30550  1.0000
  C   C66       1.0  0.85691  0.34198  0.31880  1.0000
  H   H29       1.0  0.86797  0.37827  0.30055  1.0000
  N   N15       1.0  0.77162  0.31906  0.26959  1.0000
  O   O12       1.0  0.78405  0.33699  0.19145  1.0000
  O   O13       1.0  0.76798  0.35043  0.31902  1.0000
  C   C67       1.0  0.73694  0.21630  0.31877  1.0000
  H   H30       1.0  0.71402  0.22639  0.28651  1.0000
  C   C68       1.0  0.00504  0.50862  0.34943  1.0000
  C   C69       1.0  0.00507  0.46226  0.35302  1.0000
  C   C70       1.0  0.95950  0.50953  0.35544  1.0000
  C   C71       1.0  0.00352  0.60219  0.34861  1.0000
  C   C72       1.0  0.00303  0.64869  0.34936  1.0000
  C   C73       1.0  0.95903  0.55495  0.35728  1.0000
  H   H31       1.0  0.92548  0.55228  0.37259  1.0000
  H   H32       1.0  0.92574  0.47697  0.36338  1.0000
  N   N16       1.0  0.96024  0.41808  0.35252  1.0000
  N   N17       1.0  0.96238  0.65574  0.34339  1.0000
  N   N18       1.0  0.71145  0.64909  0.35249  1.0000
  C   C74       1.0  0.30207  0.48794  0.35293  1.0000
  C   C75       1.0  0.25091  0.45404  0.37617  1.0000
  C   C76       1.0  0.21392  0.46868  0.36531  1.0000
  N   N19       1.0  0.23737  0.40616  0.41267  1.0000
  O   O14       1.0  0.22041  0.40122  0.49151  1.0000
  O   O15       1.0  0.20526  0.37096  0.36454  1.0000
  C   C77       1.0  0.34019  0.47470  0.36190  1.0000
  H   H33       1.0  0.33042  0.43876  0.37982  1.0000
  C   C78       1.0  0.64157  0.92106  0.35293  1.0000
  C   C79       1.0  0.67546  0.90380  0.37619  1.0000
  C   C80       1.0  0.66083  0.85217  0.36534  1.0000
  H   H34       1.0  0.68588  0.84085  0.38353  1.0000
  N   N20       1.0  0.72335  0.93814  0.41271  1.0000
  O   O16       1.0  0.72828  0.92612  0.49154  1.0000
  O   O17       1.0  0.75854  0.94122  0.36459  1.0000
  C   C81       1.0  0.65482  0.97241  0.36184  1.0000
  H   H35       1.0  0.69075  0.99859  0.37982  1.0000
  C   C82       1.0  0.20847  0.82745  0.35301  1.0000
  C   C83       1.0  0.22573  0.87861  0.37623  1.0000
  C   C84       1.0  0.27736  0.91559  0.36539  1.0000
  H   H36       1.0  0.28867  0.95196  0.38352  1.0000
  N   N21       1.0  0.19138  0.89215  0.41272  1.0000
  O   O18       1.0  0.20340  0.90912  0.49155  1.0000
  C   C85       1.0  0.79934  0.66970  0.35297  1.0000
  C   C86       1.0  0.85050  0.70360  0.37620  1.0000
  C   C87       1.0  0.88749  0.68895  0.36535  1.0000
  H   H37       1.0  0.92386  0.71402  0.38350  1.0000
  N   N22       1.0  0.86404  0.75148  0.41269  1.0000
  O   O19       1.0  0.88100  0.75643  0.49153  1.0000
  O   O20       1.0  0.89615  0.78667  0.36456  1.0000
  C   C88       1.0  0.76122  0.68293  0.36194  1.0000
  H   H38       1.0  0.77099  0.71887  0.37986  1.0000
  C   C89       1.0  0.45984  0.23658  0.35295  1.0000
  C   C90       1.0  0.42594  0.25384  0.37619  1.0000
  C   C91       1.0  0.44057  0.30547  0.36532  1.0000
  H   H39       1.0  0.41553  0.31678  0.38351  1.0000
  N   N23       1.0  0.37806  0.21950  0.41271  1.0000
  O   O21       1.0  0.37312  0.23153  0.49155  1.0000
  O   O22       1.0  0.34286  0.21641  0.36459  1.0000
  C   C92       1.0  0.44660  0.18522  0.36193  1.0000
  H   H40       1.0  0.41066  0.15905  0.37986  1.0000
  C   C93       1.0  0.89294  0.33019  0.35299  1.0000
  C   C94       1.0  0.87568  0.27903  0.37619  1.0000
  C   C95       1.0  0.82405  0.24204  0.36532  1.0000
  H   H41       1.0  0.81274  0.20567  0.38347  1.0000
  N   N24       1.0  0.91003  0.26548  0.41268  1.0000
  O   O23       1.0  0.89800  0.24850  0.49150  1.0000
  O   O24       1.0  0.91311  0.23337  0.36452  1.0000
  C   C96       1.0  0.94429  0.36830  0.36197  1.0000
  H   H42       1.0  0.97047  0.35853  0.37983  1.0000
