data_image0
_chemical_formula_structural       CHCHCNHN2H2CH4CH4C3NH2NH2NHC3NH2NH2NHCNH2C29H17C3O3C29H17C3O3C3NH2NH2NHC3NH2NH2NHC2NH2NH
_chemical_formula_sum              "C84 H72 N18 O6"
_cell_length_a       45.1367
_cell_length_b       45.1366
_cell_length_c       14.9474
_cell_angle_alpha    90
_cell_angle_beta     90
_cell_angle_gamma    120

_space_group_name_H-M_alt    "P 1"
_space_group_IT_number       1

loop_
  _space_group_symop_operation_xyz
  'x, y, z'

loop_
  _atom_site_type_symbol
  _atom_site_label
  _atom_site_symmetry_multiplicity
  _atom_site_fract_x
  _atom_site_fract_y
  _atom_site_fract_z
  _atom_site_occupancy
  C   C1        1.0  0.01990  0.51150  0.25213  1.0000
  H   H1        1.0  0.02602  0.51547  0.11508  1.0000
  C   C2        1.0  0.02149  0.50508  0.41731  1.0000
  H   H2        1.0  0.02980  0.49722  0.54864  1.0000
  C   C3        1.0  0.03838  0.51543  0.33287  1.0000
  N   N1        1.0  0.03729  0.52017  0.17250  1.0000
  H   H3        1.0  0.06182  0.52930  0.16915  1.0000
  N   N2        1.0  0.04013  0.50669  0.49142  1.0000
  N   N3        1.0  0.07315  0.52814  0.32891  1.0000
  H   H4        1.0  0.08047  0.51286  0.30434  1.0000
  H   H5        1.0  0.06436  0.51423  0.48817  1.0000
  C   C4        1.0  0.40930  0.85636  0.35354  1.0000
  H   H6        1.0  0.39845  0.87131  0.36263  1.0000
  H   H7        1.0  0.36178  0.81107  0.36303  1.0000
  H   H8        1.0  0.47639  0.60595  0.36253  1.0000
  H   H9        1.0  0.13308  0.52799  0.36244  1.0000
  C   C5        1.0  0.59599  0.14714  0.32033  1.0000
  H   H10       1.0  0.60684  0.13220  0.31117  1.0000
  H   H11       1.0  0.64350  0.19244  0.31083  1.0000
  H   H12       1.0  0.52890  0.39760  0.31105  1.0000
  H   H13       1.0  0.87221  0.47550  0.31098  1.0000
  C   C6        1.0  0.48897  0.52382  0.33286  1.0000
  C   C7        1.0  0.49295  0.50930  0.25215  1.0000
  C   C8        1.0  0.50596  0.48623  0.25663  1.0000
  N   N4        1.0  0.50761  0.46919  0.18257  1.0000
  H   H14       1.0  0.49809  0.47001  0.12538  1.0000
  H   H15       1.0  0.51513  0.45249  0.18591  1.0000
  N   N5        1.0  0.48444  0.51811  0.17243  1.0000
  H   H16       1.0  0.47539  0.53357  0.16898  1.0000
  H   H17       1.0  0.48937  0.51169  0.11508  1.0000
  N   N6        1.0  0.47626  0.54587  0.32879  1.0000
  H   H18       1.0  0.49158  0.56852  0.30460  1.0000
  C   C9        1.0  0.48058  0.96603  0.33274  1.0000
  C   C10       1.0  0.49508  0.98453  0.25200  1.0000
  C   C11       1.0  0.51816  0.02060  0.25644  1.0000
  N   N7        1.0  0.53517  0.03927  0.18234  1.0000
  H   H19       1.0  0.53433  0.02893  0.12516  1.0000
  H   H20       1.0  0.55187  0.06349  0.18563  1.0000
  N   N8        1.0  0.48623  0.96720  0.17229  1.0000
  H   H21       1.0  0.47074  0.94268  0.16886  1.0000
  H   H22       1.0  0.49263  0.97854  0.11492  1.0000
  N   N9        1.0  0.45855  0.93127  0.32867  1.0000
  H   H23       1.0  0.43585  0.92393  0.30484  1.0000
  C   C12       1.0  0.98381  0.49843  0.25653  1.0000
  N   N10       1.0  0.96510  0.49665  0.18241  1.0000
  H   H24       1.0  0.97533  0.50584  0.12492  1.0000
  H   H25       1.0  0.94084  0.48898  0.18559  1.0000
  C   C13       1.0  0.44521  0.87121  0.34437  1.0000
  C   C14       1.0  0.45829  0.84856  0.33686  1.0000
  C   C15       1.0  0.43658  0.81281  0.33809  1.0000
  C   C16       1.0  0.40075  0.79821  0.34668  1.0000
  C   C17       1.0  0.38752  0.82061  0.35488  1.0000
  C   C18       1.0  0.37881  0.76296  0.35257  1.0000
  C   C19       1.0  0.38010  0.73978  0.29846  1.0000
  C   C20       1.0  0.35808  0.70459  0.30456  1.0000
  C   C21       1.0  0.32211  0.69022  0.30392  1.0000
  C   C22       1.0  0.29982  0.65438  0.30442  1.0000
  C   C23       1.0  0.31418  0.63278  0.30381  1.0000
  C   C24       1.0  0.35002  0.64632  0.30440  1.0000
  C   C25       1.0  0.37162  0.68229  0.30392  1.0000
  C   C26       1.0  0.36320  0.62430  0.29828  1.0000
  C   C27       1.0  0.38767  0.62559  0.35239  1.0000
  C   C28       1.0  0.40098  0.60365  0.34646  1.0000
  C   C29       1.0  0.43662  0.61689  0.35473  1.0000
  C   C30       1.0  0.37976  0.56782  0.33791  1.0000
  C   C31       1.0  0.39380  0.54611  0.33670  1.0000
  C   C32       1.0  0.42953  0.55920  0.34423  1.0000
  C   C33       1.0  0.45060  0.59511  0.35333  1.0000
  C   C34       1.0  0.26462  0.64120  0.29832  1.0000
  C   C35       1.0  0.24145  0.61671  0.35238  1.0000
  C   C36       1.0  0.20619  0.60340  0.34649  1.0000
  C   C37       1.0  0.19158  0.62463  0.33811  1.0000
  C   C38       1.0  0.18379  0.56776  0.35467  1.0000
  C   C39       1.0  0.14804  0.55379  0.35338  1.0000
  C   C40       1.0  0.13319  0.57486  0.34437  1.0000
  C   C41       1.0  0.15584  0.61059  0.33696  1.0000
  H   H26       1.0  0.48403  0.85785  0.33071  1.0000
  H   H27       1.0  0.44733  0.79754  0.33433  1.0000
  H   H28       1.0  0.39763  0.69240  0.30130  1.0000
  H   H29       1.0  0.31200  0.70611  0.30133  1.0000
  H   H30       1.0  0.29829  0.60677  0.30116  1.0000
  H   H31       1.0  0.20686  0.65065  0.33440  1.0000
  H   H32       1.0  0.45281  0.64262  0.36285  1.0000
  H   H33       1.0  0.37734  0.52037  0.33058  1.0000
  H   H34       1.0  0.35374  0.55708  0.33413  1.0000
  H   H35       1.0  0.14655  0.62705  0.33096  1.0000
  H   H36       1.0  0.19334  0.55157  0.36268  1.0000
  H   H37       1.0  0.39749  0.64372  0.39914  1.0000
  H   H38       1.0  0.35334  0.60628  0.25132  1.0000
  H   H39       1.0  0.36066  0.75465  0.39928  1.0000
  H   H40       1.0  0.39814  0.74794  0.25152  1.0000
  H   H41       1.0  0.24975  0.60686  0.39906  1.0000
  H   H42       1.0  0.25646  0.65110  0.25144  1.0000
  C   C42       1.0  0.09692  0.56134  0.34708  1.0000
  C   C43       1.0  0.44304  0.53644  0.34681  1.0000
  C   C44       1.0  0.46796  0.90748  0.34686  1.0000
  O   O1        1.0  0.42162  0.50350  0.37101  1.0000
  O   O2        1.0  0.50094  0.91902  0.37078  1.0000
  O   O3        1.0  0.08540  0.58274  0.37146  1.0000
  C   C45       1.0  0.56007  0.13230  0.32942  1.0000
  C   C46       1.0  0.54699  0.15495  0.33689  1.0000
  C   C47       1.0  0.56870  0.19070  0.33569  1.0000
  C   C48       1.0  0.60453  0.20530  0.32719  1.0000
  C   C49       1.0  0.61777  0.18290  0.31898  1.0000
  C   C50       1.0  0.62648  0.24055  0.32121  1.0000
  C   C51       1.0  0.62518  0.26375  0.37524  1.0000
  C   C52       1.0  0.64720  0.29894  0.36905  1.0000
  C   C53       1.0  0.68317  0.31331  0.36967  1.0000
  C   C54       1.0  0.70547  0.34915  0.36906  1.0000
  C   C55       1.0  0.69110  0.37075  0.36962  1.0000
  C   C56       1.0  0.65526  0.35721  0.36904  1.0000
  C   C57       1.0  0.63366  0.32124  0.36962  1.0000
  C   C58       1.0  0.64208  0.37922  0.37520  1.0000
  C   C59       1.0  0.61761  0.37794  0.32110  1.0000
  C   C60       1.0  0.60430  0.39988  0.32705  1.0000
  C   C61       1.0  0.56867  0.38666  0.31883  1.0000
  C   C62       1.0  0.62553  0.43571  0.33560  1.0000
  C   C63       1.0  0.61150  0.45743  0.33685  1.0000
  C   C64       1.0  0.57577  0.44435  0.32936  1.0000
  C   C65       1.0  0.55470  0.40843  0.32023  1.0000
  C   C66       1.0  0.74066  0.36232  0.37523  1.0000
  C   C67       1.0  0.76384  0.38679  0.32113  1.0000
  C   C68       1.0  0.79910  0.40010  0.32710  1.0000
  C   C69       1.0  0.81370  0.37888  0.33576  1.0000
  C   C70       1.0  0.82151  0.43573  0.31874  1.0000
  C   C71       1.0  0.85726  0.44970  0.32016  1.0000
  C   C72       1.0  0.87210  0.42864  0.32949  1.0000
  C   C73       1.0  0.84945  0.39291  0.33704  1.0000
  H   H43       1.0  0.52124  0.14566  0.34295  1.0000
  H   H44       1.0  0.55795  0.20597  0.33940  1.0000
  H   H45       1.0  0.60765  0.31113  0.37229  1.0000
  H   H46       1.0  0.69327  0.29741  0.37232  1.0000
  H   H47       1.0  0.70699  0.39675  0.37227  1.0000
  H   H48       1.0  0.79843  0.35286  0.33960  1.0000
  H   H49       1.0  0.55248  0.36092  0.31066  1.0000
  H   H50       1.0  0.62796  0.48317  0.34298  1.0000
  H   H51       1.0  0.65155  0.44645  0.33936  1.0000
  H   H52       1.0  0.85873  0.37646  0.34329  1.0000
  H   H53       1.0  0.81196  0.45192  0.31053  1.0000
  H   H54       1.0  0.60778  0.35981  0.27436  1.0000
  H   H55       1.0  0.65196  0.39725  0.42216  1.0000
  H   H56       1.0  0.64461  0.24884  0.27448  1.0000
  H   H57       1.0  0.60715  0.25560  0.42218  1.0000
  H   H58       1.0  0.75555  0.39661  0.27435  1.0000
  H   H59       1.0  0.74881  0.35246  0.42223  1.0000
  C   C74       1.0  0.90837  0.44215  0.32705  1.0000
  C   C75       1.0  0.56226  0.46710  0.32688  1.0000
  C   C76       1.0  0.53733  0.09603  0.32677  1.0000
  O   O4        1.0  0.58369  0.50008  0.30296  1.0000
  O   O5        1.0  0.50438  0.08451  0.30260  1.0000
  O   O6        1.0  0.91991  0.42069  0.30336  1.0000
  C   C77       1.0  0.51631  0.47971  0.34110  1.0000
  C   C78       1.0  0.51233  0.49423  0.42182  1.0000
  C   C79       1.0  0.49931  0.51729  0.41734  1.0000
  N   N11       1.0  0.52088  0.48545  0.50153  1.0000
  H   H60       1.0  0.52985  0.46992  0.50496  1.0000
  H   H61       1.0  0.51589  0.49182  0.55887  1.0000
  N   N12       1.0  0.49764  0.53431  0.49140  1.0000
  H   H62       1.0  0.48999  0.55092  0.48822  1.0000
  H   H63       1.0  0.50698  0.53337  0.54875  1.0000
  N   N13       1.0  0.52907  0.45771  0.34521  1.0000
  H   H64       1.0  0.51369  0.43499  0.36892  1.0000
  C   C80       1.0  0.52470  0.03748  0.34090  1.0000
  C   C81       1.0  0.51018  0.01899  0.42164  1.0000
  C   C82       1.0  0.48712  0.98291  0.41720  1.0000
  N   N14       1.0  0.51899  0.03633  0.50133  1.0000
  H   H65       1.0  0.53444  0.06085  0.50475  1.0000
  H   H66       1.0  0.51256  0.02500  0.55871  1.0000
  N   N15       1.0  0.47012  0.96423  0.49129  1.0000
  H   H67       1.0  0.45344  0.94000  0.48803  1.0000
  H   H68       1.0  0.47099  0.97455  0.54853  1.0000
  N   N16       1.0  0.54674  0.07225  0.34493  1.0000
  H   H69       1.0  0.56938  0.07958  0.36918  1.0000
  C   C83       1.0  0.96693  0.48811  0.34099  1.0000
  C   C84       1.0  0.98542  0.49210  0.42174  1.0000
  N   N17       1.0  0.96808  0.48364  0.50145  1.0000
  H   H70       1.0  0.94358  0.47464  0.50487  1.0000
  H   H71       1.0  0.97943  0.48859  0.55881  1.0000
  N   N18       1.0  0.93217  0.47537  0.34507  1.0000
  H   H72       1.0  0.92484  0.49078  0.36858  1.0000
