data_image0
_chemical_formula_structural       C16H16C16H16C16H16NC2HN2C2HN2C2HN2C2HN2C2HN2C2HNC3NC3NC5NC5NC36H26C4H4C3NC3NC5NC5NC36H26C4H4C3NC3NC5NC5NC36H26C4H4CNC2O2HNCNC2O2HNCNC2O2HNCNC2O2HNCNC2O2HNCNC2O2HN
_chemical_formula_sum              "C246 H150 N36 O12"
_cell_length_a       67.5638
_cell_length_b       67.5638
_cell_length_c       14.8475
_cell_angle_alpha    89.7164
_cell_angle_beta     90.2836
_cell_angle_gamma    120

_space_group_name_H-M_alt    "P 1"
_space_group_IT_number       1

loop_
  _space_group_symop_operation_xyz
  'x, y, z'

loop_
  _atom_site_type_symbol
  _atom_site_label
  _atom_site_symmetry_multiplicity
  _atom_site_fract_x
  _atom_site_fract_y
  _atom_site_fract_z
  _atom_site_occupancy
  C   C1        1.0  0.13056  0.68316  0.28885  1.0000
  C   C2        1.0  0.11115  0.66113  0.28306  1.0000
  C   C3        1.0  0.16578  0.73355  0.32397  1.0000
  C   C4        1.0  0.18653  0.75448  0.33114  1.0000
  C   C5        1.0  0.12903  0.54055  0.27983  1.0000
  C   C6        1.0  0.11060  0.54476  0.27647  1.0000
  C   C7        1.0  0.19529  0.54323  0.32348  1.0000
  C   C8        1.0  0.17604  0.54609  0.31582  1.0000
  C   C9        1.0  0.96759  0.47371  0.28294  1.0000
  C   C10       1.0  0.94836  0.45158  0.28909  1.0000
  C   C11       1.0  0.89338  0.37979  0.32937  1.0000
  C   C12       1.0  0.91393  0.40089  0.32166  1.0000
  C   C13       1.0  0.96881  0.58959  0.27670  1.0000
  C   C14       1.0  0.95025  0.59358  0.28016  1.0000
  C   C15       1.0  0.90305  0.58736  0.31634  1.0000
  C   C16       1.0  0.88364  0.58992  0.32406  1.0000
  H   H1        1.0  0.86932  0.57922  0.28781  1.0000
  H   H2        1.0  0.90201  0.57476  0.27523  1.0000
  H   H3        1.0  0.94233  0.59344  0.22104  1.0000
  H   H4        1.0  0.97353  0.58620  0.21585  1.0000
  H   H5        1.0  0.97257  0.48129  0.22097  1.0000
  H   H6        1.0  0.93984  0.44383  0.23102  1.0000
  H   H7        1.0  0.10583  0.54830  0.21566  1.0000
  H   H8        1.0  0.13681  0.54069  0.22068  1.0000
  H   H9        1.0  0.17720  0.55885  0.27486  1.0000
  H   H10       1.0  0.20961  0.55386  0.28724  1.0000
  H   H11       1.0  0.10542  0.65399  0.22092  1.0000
  H   H12       1.0  0.13843  0.69128  0.23033  1.0000
  H   H13       1.0  0.18892  0.76779  0.29058  1.0000
  H   H14       1.0  0.15377  0.73245  0.27884  1.0000
  H   H15       1.0  0.92539  0.40254  0.27329  1.0000
  H   H16       1.0  0.89059  0.36693  0.28591  1.0000
  C   C17       1.0  0.42258  0.53951  0.29125  1.0000
  C   C18       1.0  0.44460  0.54211  0.28576  1.0000
  C   C19       1.0  0.37216  0.52423  0.32558  1.0000
  C   C20       1.0  0.35122  0.52404  0.33235  1.0000
  C   C21       1.0  0.56514  0.68061  0.28354  1.0000
  C   C22       1.0  0.56094  0.65797  0.28012  1.0000
  C   C23       1.0  0.56246  0.74408  0.32726  1.0000
  C   C24       1.0  0.55958  0.72198  0.31965  1.0000
  C   C25       1.0  0.63191  0.58601  0.28573  1.0000
  C   C26       1.0  0.65405  0.58889  0.29154  1.0000
  C   C27       1.0  0.72587  0.60562  0.33054  1.0000
  C   C28       1.0  0.70476  0.60509  0.32326  1.0000
  C   C29       1.0  0.51609  0.47133  0.28030  1.0000
  C   C30       1.0  0.51212  0.44877  0.28381  1.0000
  C   C31       1.0  0.51834  0.40773  0.32009  1.0000
  C   C32       1.0  0.51578  0.38574  0.32785  1.0000
  H   H17       1.0  0.52647  0.38219  0.29157  1.0000
  H   H18       1.0  0.53094  0.41937  0.27896  1.0000
  H   H19       1.0  0.51226  0.44112  0.22472  1.0000
  H   H20       1.0  0.51950  0.47957  0.21945  1.0000
  H   H21       1.0  0.62426  0.58349  0.22390  1.0000
  H   H22       1.0  0.66174  0.58823  0.23334  1.0000
  H   H23       1.0  0.55741  0.64981  0.21929  1.0000
  H   H24       1.0  0.56502  0.68838  0.22441  1.0000
  H   H25       1.0  0.54685  0.71049  0.27853  1.0000
  H   H26       1.0  0.55185  0.74786  0.29095  1.0000
  H   H27       1.0  0.45181  0.54371  0.22373  1.0000
  H   H28       1.0  0.41449  0.53937  0.23261  1.0000
  H   H29       1.0  0.33796  0.51323  0.29155  1.0000
  H   H30       1.0  0.37331  0.51345  0.28046  1.0000
  H   H31       1.0  0.70306  0.61500  0.27495  1.0000
  H   H32       1.0  0.73868  0.61577  0.28686  1.0000
  C   C33       1.0  0.56619  0.97515  0.29447  1.0000
  C   C34       1.0  0.56358  0.99457  0.28885  1.0000
  C   C35       1.0  0.58147  0.93994  0.32904  1.0000
  C   C36       1.0  0.58168  0.91919  0.33594  1.0000
  C   C37       1.0  0.42516  0.97675  0.28460  1.0000
  C   C38       1.0  0.44780  0.99518  0.28171  1.0000
  C   C39       1.0  0.36163  0.91044  0.32648  1.0000
  C   C40       1.0  0.38374  0.92969  0.31942  1.0000
  C   C41       1.0  0.51966  0.13802  0.28882  1.0000
  C   C42       1.0  0.51680  0.15728  0.29478  1.0000
  C   C43       1.0  0.50005  0.21226  0.33413  1.0000
  C   C44       1.0  0.50059  0.19170  0.32674  1.0000
  C   C45       1.0  0.63426  0.13676  0.28185  1.0000
  C   C46       1.0  0.65682  0.15534  0.28486  1.0000
  C   C47       1.0  0.69789  0.20258  0.31993  1.0000
  C   C48       1.0  0.71988  0.22200  0.32717  1.0000
  H   H33       1.0  0.72340  0.23626  0.29054  1.0000
  H   H34       1.0  0.68620  0.20357  0.27891  1.0000
  H   H35       1.0  0.66440  0.16319  0.22557  1.0000
  H   H36       1.0  0.62595  0.13198  0.22114  1.0000
  H   H37       1.0  0.52216  0.13304  0.22692  1.0000
  H   H38       1.0  0.51743  0.16576  0.23661  1.0000
  H   H39       1.0  0.45603  0.00003  0.22103  1.0000
  H   H40       1.0  0.41746  0.96905  0.22526  1.0000
  H   H41       1.0  0.39530  0.92859  0.27851  1.0000
  H   H42       1.0  0.35791  0.89618  0.28997  1.0000
  H   H43       1.0  0.56203  0.00033  0.22678  1.0000
  H   H44       1.0  0.56637  0.96734  0.23587  1.0000
  H   H45       1.0  0.59250  0.91683  0.29523  1.0000
  H   H46       1.0  0.59226  0.95197  0.28398  1.0000
  H   H47       1.0  0.49069  0.18021  0.27839  1.0000
  H   H48       1.0  0.48991  0.21502  0.29047  1.0000
  N   N1        1.0  0.28485  0.53627  0.27662  1.0000
  C   C49       1.0  0.26516  0.53700  0.26989  1.0000
  C   C50       1.0  0.25018  0.53010  0.34388  1.0000
  H   H49       1.0  0.26152  0.54264  0.21152  1.0000
  N   N2        1.0  0.23098  0.53113  0.33923  1.0000
  N   N3        1.0  0.56943  0.84070  0.28035  1.0000
  C   C51       1.0  0.56870  0.82029  0.27364  1.0000
  C   C52       1.0  0.57560  0.81206  0.34765  1.0000
  H   H50       1.0  0.56305  0.81114  0.21531  1.0000
  N   N4        1.0  0.57457  0.79184  0.34304  1.0000
  N   N5        1.0  0.26509  0.82095  0.27706  1.0000
  C   C53       1.0  0.28550  0.84066  0.27092  1.0000
  C   C54       1.0  0.29364  0.85553  0.34524  1.0000
  H   H51       1.0  0.29473  0.84437  0.21274  1.0000
  N   N6        1.0  0.31386  0.87473  0.34116  1.0000
  N   N7        1.0  0.79294  0.59497  0.27874  1.0000
  C   C55       1.0  0.81278  0.59455  0.27190  1.0000
  C   C56       1.0  0.82806  0.60185  0.34533  1.0000
  H   H52       1.0  0.81630  0.58885  0.21387  1.0000
  N   N8        1.0  0.84741  0.60114  0.34057  1.0000
  N   N9        1.0  0.51070  0.29008  0.28247  1.0000
  C   C57       1.0  0.51112  0.31036  0.27565  1.0000
  C   C58       1.0  0.50383  0.31817  0.34911  1.0000
  H   H53       1.0  0.51682  0.31971  0.21762  1.0000
  N   N10       1.0  0.50454  0.33825  0.34436  1.0000
  N   N11       1.0  0.81547  0.31262  0.27923  1.0000
  C   C59       1.0  0.79519  0.29278  0.27297  1.0000
  C   C60       1.0  0.78748  0.27760  0.34671  1.0000
  H   H54       1.0  0.78576  0.28918  0.21513  1.0000
  N   N12       1.0  0.76740  0.25824  0.34252  1.0000
  C   C61       1.0  0.02874  0.62414  0.35496  1.0000
  C   C62       1.0  0.05238  0.63575  0.35600  1.0000
  C   C63       1.0  0.05966  0.61969  0.35556  1.0000
  N   N13       1.0  0.04018  0.59903  0.35425  1.0000
  C   C64       1.0  0.02098  0.60070  0.35436  1.0000
  C   C65       1.0  0.99758  0.58313  0.35435  1.0000
  C   C66       1.0  0.98994  0.55931  0.35506  1.0000
  N   N14       1.0  0.00263  0.54892  0.35403  1.0000
  C   C67       1.0  0.98954  0.52586  0.35635  1.0000
  C   C68       1.0  0.96693  0.52118  0.35901  1.0000
  C   C69       1.0  0.96717  0.54172  0.35815  1.0000
  C   C70       1.0  0.99670  0.50932  0.35672  1.0000
  C   C71       1.0  0.01994  0.51466  0.35561  1.0000
  N   N15       1.0  0.03941  0.53532  0.35466  1.0000
  C   C72       1.0  0.05862  0.53365  0.35439  1.0000
  C   C73       1.0  0.05085  0.51021  0.35453  1.0000
  C   C74       1.0  0.02723  0.49860  0.35546  1.0000
  C   C75       1.0  0.08201  0.55122  0.35422  1.0000
  C   C76       1.0  0.08966  0.57503  0.35476  1.0000
  N   N16       1.0  0.07696  0.58542  0.35406  1.0000
  C   C77       1.0  0.09006  0.60848  0.35606  1.0000
  C   C78       1.0  0.11268  0.61315  0.35803  1.0000
  C   C79       1.0  0.11243  0.59262  0.35728  1.0000
  C   C80       1.0  0.08289  0.62502  0.35674  1.0000
  C   C81       1.0  0.10045  0.64850  0.36174  1.0000
  C   C82       1.0  0.10941  0.65862  0.44621  1.0000
  C   C83       1.0  0.12885  0.68056  0.45171  1.0000
  C   C84       1.0  0.14014  0.69316  0.37328  1.0000
  C   C85       1.0  0.16115  0.71459  0.37951  1.0000
  C   C86       1.0  0.20364  0.75727  0.39371  1.0000
  C   C87       1.0  0.19909  0.73825  0.44850  1.0000
  C   C88       1.0  0.17838  0.71742  0.44143  1.0000
  C   C89       1.0  0.09919  0.54473  0.35601  1.0000
  C   C90       1.0  0.10660  0.54026  0.43877  1.0000
  C   C91       1.0  0.12498  0.53600  0.44180  1.0000
  C   C92       1.0  0.13673  0.53618  0.36257  1.0000
  C   C93       1.0  0.15596  0.53259  0.36676  1.0000
  C   C94       1.0  0.15587  0.51577  0.42434  1.0000
  C   C95       1.0  0.17506  0.51288  0.43204  1.0000
  C   C96       1.0  0.19523  0.52663  0.38224  1.0000
  C   C97       1.0  0.97917  0.48582  0.36134  1.0000
  C   C98       1.0  0.93986  0.44092  0.37368  1.0000
  C   C99       1.0  0.95202  0.45302  0.45166  1.0000
  C   C100      1.0  0.97127  0.47509  0.44579  1.0000
  C   C101      1.0  0.91908  0.41929  0.38071  1.0000
  C   C102      1.0  0.90259  0.41570  0.44696  1.0000
  C   C103      1.0  0.88209  0.39470  0.45460  1.0000
  C   C104      1.0  0.87700  0.37624  0.39612  1.0000
  C   C105      1.0  0.98039  0.58959  0.35620  1.0000
  C   C106      1.0  0.97301  0.59381  0.43902  1.0000
  C   C107      1.0  0.95450  0.59786  0.44214  1.0000
  C   C108      1.0  0.94257  0.59768  0.36297  1.0000
  C   C109      1.0  0.92316  0.60097  0.36727  1.0000
  C   C110      1.0  0.88354  0.60628  0.38299  1.0000
  C   C111      1.0  0.90374  0.62013  0.43282  1.0000
  C   C112      1.0  0.92309  0.61756  0.42501  1.0000
  H   H55       1.0  0.90453  0.63223  0.47637  1.0000
  H   H56       1.0  0.93727  0.62808  0.46230  1.0000
  H   H57       1.0  0.94925  0.60008  0.50390  1.0000
  H   H58       1.0  0.98067  0.59331  0.49802  1.0000
  H   H59       1.0  0.01901  0.63184  0.35535  1.0000
  H   H60       1.0  0.06242  0.65314  0.35699  1.0000
  H   H61       1.0  0.04001  0.58473  0.35419  1.0000
  H   H62       1.0  0.03959  0.54963  0.35510  1.0000
  H   H63       1.0  0.95288  0.54325  0.36043  1.0000
  H   H64       1.0  0.95244  0.50552  0.36172  1.0000
  H   H65       1.0  0.97904  0.48359  0.50391  1.0000
  H   H66       1.0  0.94671  0.44600  0.51428  1.0000
  H   H67       1.0  0.01719  0.48120  0.35586  1.0000
  H   H68       1.0  0.06058  0.50251  0.35430  1.0000
  H   H69       1.0  0.12718  0.62882  0.36020  1.0000
  H   H70       1.0  0.12673  0.59108  0.35911  1.0000
  H   H71       1.0  0.09907  0.54071  0.49780  1.0000
  H   H72       1.0  0.13026  0.53358  0.50352  1.0000
  H   H73       1.0  0.17416  0.50063  0.47549  1.0000
  H   H74       1.0  0.14169  0.50531  0.46162  1.0000
  H   H75       1.0  0.17620  0.70411  0.48154  1.0000
  H   H76       1.0  0.21093  0.73930  0.49447  1.0000
  H   H77       1.0  0.13497  0.68710  0.51429  1.0000
  H   H78       1.0  0.10232  0.64972  0.50443  1.0000
  H   H79       1.0  0.90515  0.42858  0.48989  1.0000
  H   H80       1.0  0.87078  0.39310  0.50370  1.0000
  C   C113      1.0  0.22425  0.77776  0.40476  1.0000
  C   C114      1.0  0.21438  0.52418  0.39575  1.0000
  C   C115      1.0  0.85655  0.35558  0.40735  1.0000
  C   C116      1.0  0.86425  0.60844  0.39654  1.0000
  H   H81       1.0  0.23362  0.77941  0.45924  1.0000
  H   H82       1.0  0.86351  0.61606  0.45265  1.0000
  H   H83       1.0  0.84744  0.35358  0.46266  1.0000
  H   H84       1.0  0.21518  0.51660  0.45224  1.0000
  C   C117      1.0  0.48154  0.49655  0.35835  1.0000
  C   C118      1.0  0.46994  0.50857  0.35927  1.0000
  C   C119      1.0  0.48599  0.53191  0.35886  1.0000
  N   N17       1.0  0.50665  0.53311  0.35769  1.0000
  C   C120      1.0  0.50499  0.51223  0.35781  1.0000
  C   C121      1.0  0.52256  0.50641  0.35785  1.0000
  C   C122      1.0  0.54638  0.52258  0.35850  1.0000
  N   N18       1.0  0.55676  0.54567  0.35744  1.0000
  C   C123      1.0  0.57982  0.55563  0.35967  1.0000
  C   C124      1.0  0.58451  0.53770  0.36229  1.0000
  C   C125      1.0  0.56397  0.51741  0.36161  1.0000
  C   C126      1.0  0.59636  0.57934  0.36002  1.0000
  C   C127      1.0  0.59102  0.59724  0.35901  1.0000
  N   N19       1.0  0.57035  0.59605  0.35817  1.0000
  C   C128      1.0  0.57202  0.61692  0.35793  1.0000
  C   C129      1.0  0.59547  0.63260  0.35806  1.0000
  C   C130      1.0  0.60708  0.62058  0.35888  1.0000
  C   C131      1.0  0.55445  0.62274  0.35777  1.0000
  C   C132      1.0  0.53064  0.60658  0.35829  1.0000
  N   N20       1.0  0.52025  0.58349  0.35753  1.0000
  C   C133      1.0  0.49720  0.57352  0.35942  1.0000
  C   C134      1.0  0.49252  0.59146  0.36135  1.0000
  C   C135      1.0  0.51305  0.61175  0.36072  1.0000
  C   C136      1.0  0.48066  0.54981  0.35996  1.0000
  C   C137      1.0  0.45717  0.54388  0.36462  1.0000
  C   C138      1.0  0.44698  0.54249  0.44896  1.0000
  C   C139      1.0  0.42504  0.53999  0.45413  1.0000
  C   C140      1.0  0.41249  0.53885  0.37553  1.0000
  C   C141      1.0  0.39105  0.53841  0.38141  1.0000
  C   C142      1.0  0.34836  0.53820  0.39484  1.0000
  C   C143      1.0  0.36732  0.55252  0.44996  1.0000
  C   C144      1.0  0.38816  0.55265  0.44326  1.0000
  C   C145      1.0  0.56094  0.64640  0.35965  1.0000
  C   C146      1.0  0.56539  0.65809  0.44245  1.0000
  C   C147      1.0  0.56966  0.68073  0.44553  1.0000
  C   C148      1.0  0.56950  0.69248  0.36632  1.0000
  C   C149      1.0  0.57309  0.71530  0.37055  1.0000
  C   C150      1.0  0.58990  0.73189  0.42818  1.0000
  C   C151      1.0  0.59280  0.75395  0.43590  1.0000
  C   C152      1.0  0.57906  0.76050  0.38605  1.0000
  C   C153      1.0  0.61987  0.58530  0.36435  1.0000
  C   C154      1.0  0.66479  0.59091  0.37595  1.0000
  C   C155      1.0  0.65276  0.59080  0.45413  1.0000
  C   C156      1.0  0.63068  0.58799  0.44863  1.0000
  C   C157      1.0  0.68643  0.59174  0.38261  1.0000
  C   C158      1.0  0.69009  0.57873  0.44875  1.0000
  C   C159      1.0  0.71110  0.57921  0.45599  1.0000
  C   C160      1.0  0.72949  0.59267  0.39718  1.0000
  C   C161      1.0  0.51610  0.48276  0.35977  1.0000
  C   C162      1.0  0.51189  0.47099  0.44262  1.0000
  C   C163      1.0  0.50785  0.44842  0.44580  1.0000
  C   C164      1.0  0.50802  0.43683  0.36664  1.0000
  C   C165      1.0  0.50473  0.41412  0.37100  1.0000
  C   C166      1.0  0.49941  0.36915  0.38678  1.0000
  C   C167      1.0  0.48556  0.37539  0.43660  1.0000
  C   C168      1.0  0.48814  0.39734  0.42876  1.0000
  H   H85       1.0  0.47347  0.36400  0.48013  1.0000
  H   H86       1.0  0.47762  0.40093  0.46604  1.0000
  H   H87       1.0  0.50561  0.44081  0.50756  1.0000
  H   H88       1.0  0.51238  0.47901  0.50160  1.0000
  H   H89       1.0  0.47385  0.47912  0.35870  1.0000
  H   H90       1.0  0.45254  0.50121  0.36016  1.0000
  H   H91       1.0  0.52096  0.54724  0.35767  1.0000
  H   H92       1.0  0.55605  0.58191  0.35853  1.0000
  H   H93       1.0  0.56244  0.50158  0.36390  1.0000
  H   H94       1.0  0.60017  0.53887  0.36507  1.0000
  H   H95       1.0  0.62223  0.58713  0.50689  1.0000
  H   H96       1.0  0.65984  0.59240  0.51665  1.0000
  H   H97       1.0  0.62447  0.62794  0.35921  1.0000
  H   H98       1.0  0.60317  0.65003  0.35781  1.0000
  H   H99       1.0  0.47685  0.59029  0.36339  1.0000
  H   H100      1.0  0.51459  0.62758  0.36249  1.0000
  H   H101      1.0  0.56495  0.64997  0.50145  1.0000
  H   H102      1.0  0.57209  0.68829  0.50725  1.0000
  H   H103      1.0  0.60504  0.76520  0.47936  1.0000
  H   H104      1.0  0.60036  0.72809  0.46546  1.0000
  H   H105      1.0  0.40142  0.56367  0.48359  1.0000
  H   H106      1.0  0.36622  0.56319  0.49589  1.0000
  H   H107      1.0  0.41844  0.53942  0.51662  1.0000
  H   H108      1.0  0.45584  0.54421  0.50729  1.0000
  H   H109      1.0  0.67726  0.56833  0.49190  1.0000
  H   H110      1.0  0.71276  0.56941  0.50503  1.0000
  C   C169      1.0  0.32786  0.53830  0.40546  1.0000
  C   C170      1.0  0.58153  0.78207  0.39953  1.0000
  C   C171      1.0  0.75016  0.59285  0.40797  1.0000
  C   C172      1.0  0.49725  0.34767  0.40033  1.0000
  H   H111      1.0  0.32616  0.54591  0.45981  1.0000
  H   H112      1.0  0.48962  0.33919  0.45643  1.0000
  H   H113      1.0  0.75222  0.58564  0.46321  1.0000
  H   H114      1.0  0.58912  0.79034  0.45599  1.0000
  C   C173      1.0  0.60913  0.07693  0.36093  1.0000
  C   C174      1.0  0.59710  0.05330  0.36205  1.0000
  C   C175      1.0  0.57377  0.04601  0.36168  1.0000
  N   N21       1.0  0.57257  0.06548  0.36037  1.0000
  C   C176      1.0  0.59345  0.08469  0.36031  1.0000
  C   C177      1.0  0.59926  0.10809  0.36010  1.0000
  C   C178      1.0  0.58310  0.11573  0.36087  1.0000
  N   N22       1.0  0.56000  0.10303  0.36000  1.0000
  C   C179      1.0  0.55005  0.11613  0.36236  1.0000
  C   C180      1.0  0.56798  0.13874  0.36493  1.0000
  C   C181      1.0  0.58827  0.13849  0.36392  1.0000
  C   C182      1.0  0.52634  0.10896  0.36285  1.0000
  C   C183      1.0  0.50844  0.08572  0.36172  1.0000
  N   N23       1.0  0.50964  0.06625  0.36079  1.0000
  C   C184      1.0  0.48876  0.04704  0.36039  1.0000
  C   C185      1.0  0.47308  0.05481  0.36046  1.0000
  C   C186      1.0  0.48510  0.07844  0.36150  1.0000
  C   C187      1.0  0.48294  0.02365  0.36015  1.0000
  C   C188      1.0  0.49910  0.01601  0.36082  1.0000
  N   N24       1.0  0.52219  0.02871  0.36023  1.0000
  C   C189      1.0  0.53215  0.01561  0.36220  1.0000
  C   C190      1.0  0.51422  0.99299  0.36402  1.0000
  C   C191      1.0  0.49392  0.99323  0.36320  1.0000
  C   C192      1.0  0.55586  0.02277  0.36283  1.0000
  C   C193      1.0  0.56180  0.00522  0.36764  1.0000
  C   C194      1.0  0.56315  0.99623  0.45204  1.0000
  C   C195      1.0  0.56566  0.97678  0.45734  1.0000
  C   C196      1.0  0.56682  0.96554  0.37881  1.0000
  C   C197      1.0  0.56728  0.94454  0.38482  1.0000
  C   C198      1.0  0.56751  0.90205  0.39843  1.0000
  C   C199      1.0  0.55318  0.90657  0.45345  1.0000
  C   C200      1.0  0.55303  0.92727  0.44667  1.0000
  C   C201      1.0  0.45927  0.00647  0.36155  1.0000
  C   C202      1.0  0.44749  0.99895  0.44410  1.0000
  C   C203      1.0  0.42485  0.98057  0.44665  1.0000
  C   C204      1.0  0.41319  0.96894  0.36713  1.0000
  C   C205      1.0  0.39037  0.94969  0.37081  1.0000
  C   C206      1.0  0.37370  0.94971  0.42826  1.0000
  C   C207      1.0  0.35164  0.93051  0.43541  1.0000
  C   C208      1.0  0.34515  0.91041  0.38514  1.0000
  C   C209      1.0  0.52038  0.12649  0.36734  1.0000
  C   C210      1.0  0.51479  0.16580  0.37926  1.0000
  C   C211      1.0  0.51491  0.15368  0.45735  1.0000
  C   C212      1.0  0.51773  0.13443  0.45170  1.0000
  C   C213      1.0  0.51393  0.18657  0.38606  1.0000
  C   C214      1.0  0.52694  0.20309  0.45227  1.0000
  C   C215      1.0  0.52646  0.22360  0.45958  1.0000
  C   C216      1.0  0.51301  0.22867  0.40081  1.0000
  C   C217      1.0  0.62292  0.12528  0.36161  1.0000
  C   C218      1.0  0.63478  0.13276  0.44422  1.0000
  C   C219      1.0  0.65735  0.15128  0.44689  1.0000
  C   C220      1.0  0.66885  0.16312  0.36746  1.0000
  C   C221      1.0  0.69156  0.18254  0.37129  1.0000
  C   C222      1.0  0.73655  0.22218  0.38590  1.0000
  C   C223      1.0  0.73036  0.20205  0.43615  1.0000
  C   C224      1.0  0.70840  0.18269  0.42889  1.0000
  H   H115      1.0  0.74181  0.20132  0.47959  1.0000
  H   H116      1.0  0.70486  0.16856  0.46646  1.0000
  H   H117      1.0  0.66501  0.15662  0.50852  1.0000
  H   H118      1.0  0.62681  0.12519  0.50340  1.0000
  H   H119      1.0  0.62656  0.08666  0.36113  1.0000
  H   H120      1.0  0.60447  0.04326  0.36297  1.0000
  H   H121      1.0  0.55844  0.06566  0.36022  1.0000
  H   H122      1.0  0.52377  0.06608  0.36130  1.0000
  H   H123      1.0  0.60410  0.15278  0.36629  1.0000
  H   H124      1.0  0.56682  0.15323  0.36781  1.0000
  H   H125      1.0  0.51858  0.12669  0.50988  1.0000
  H   H126      1.0  0.51331  0.15900  0.51991  1.0000
  H   H127      1.0  0.47773  0.08847  0.36187  1.0000
  H   H128      1.0  0.45565  0.04508  0.36019  1.0000
  H   H129      1.0  0.51538  0.97848  0.36602  1.0000
  H   H130      1.0  0.47809  0.97894  0.36483  1.0000
  H   H131      1.0  0.45555  0.00641  0.50331  1.0000
  H   H132      1.0  0.41722  0.97521  0.50821  1.0000
  H   H133      1.0  0.34033  0.93134  0.47879  1.0000
  H   H134      1.0  0.37747  0.96383  0.46584  1.0000
  H   H135      1.0  0.54201  0.92943  0.48694  1.0000
  H   H136      1.0  0.54250  0.89470  0.49939  1.0000
  H   H137      1.0  0.56621  0.97063  0.51986  1.0000
  H   H138      1.0  0.56142  0.00326  0.51031  1.0000
  H   H139      1.0  0.53736  0.20056  0.49534  1.0000
  H   H140      1.0  0.53627  0.23494  0.50863  1.0000
  C   C225      1.0  0.56742  0.88143  0.40916  1.0000
  C   C226      1.0  0.32356  0.89125  0.39808  1.0000
  C   C227      1.0  0.51282  0.24913  0.41167  1.0000
  C   C228      1.0  0.75805  0.24148  0.39887  1.0000
  H   H141      1.0  0.55985  0.87203  0.46360  1.0000
  H   H142      1.0  0.76660  0.24229  0.45484  1.0000
  H   H143      1.0  0.52003  0.25828  0.46693  1.0000
  H   H144      1.0  0.31523  0.89036  0.45448  1.0000
  C   C229      1.0  0.29126  0.52925  0.35167  1.0000
  N   N25       1.0  0.25646  0.52278  0.41857  1.0000
  C   C230      1.0  0.27613  0.52192  0.42643  1.0000
  C   C231      1.0  0.28011  0.51341  0.50549  1.0000
  O   O1        1.0  0.27468  0.51845  0.57654  1.0000
  O   O2        1.0  0.28048  0.49531  0.50730  1.0000
  H   H145      1.0  0.28216  0.48847  0.45958  1.0000
  N   N26       1.0  0.31131  0.52984  0.34802  1.0000
  C   C232      1.0  0.57646  0.85398  0.35537  1.0000
  N   N27       1.0  0.58293  0.82551  0.42231  1.0000
  C   C233      1.0  0.58381  0.84603  0.43011  1.0000
  C   C234      1.0  0.59231  0.85831  0.50924  1.0000
  O   O3        1.0  0.58745  0.84784  0.58060  1.0000
  O   O4        1.0  0.61027  0.87693  0.51083  1.0000
  H   H146      1.0  0.61706  0.88554  0.46302  1.0000
  N   N28       1.0  0.57586  0.87344  0.35168  1.0000
  C   C235      1.0  0.25171  0.81444  0.35181  1.0000
  N   N29       1.0  0.28009  0.84915  0.41963  1.0000
  C   C236      1.0  0.25956  0.82947  0.42688  1.0000
  C   C237      1.0  0.24717  0.82542  0.50580  1.0000
  O   O5        1.0  0.25759  0.83053  0.57728  1.0000
  O   O6        1.0  0.22858  0.82483  0.50690  1.0000
  H   H147      1.0  0.22010  0.82329  0.45886  1.0000
  N   N30       1.0  0.23226  0.79439  0.34765  1.0000
  C   C238      1.0  0.78666  0.60205  0.35337  1.0000
  N   N31       1.0  0.82190  0.60923  0.41958  1.0000
  C   C239      1.0  0.80210  0.60981  0.42750  1.0000
  C   C240      1.0  0.79831  0.61842  0.50608  1.0000
  O   O7        1.0  0.80414  0.61387  0.57772  1.0000
  O   O8        1.0  0.79741  0.63626  0.50651  1.0000
  H   H148      1.0  0.79540  0.64283  0.45827  1.0000
  N   N32       1.0  0.76646  0.60116  0.34978  1.0000
  C   C241      1.0  0.50363  0.27656  0.35711  1.0000
  N   N33       1.0  0.49646  0.30448  0.42336  1.0000
  C   C242      1.0  0.49589  0.28409  0.43128  1.0000
  C   C243      1.0  0.48728  0.27151  0.50986  1.0000
  O   O9        1.0  0.49184  0.28174  0.58150  1.0000
  O   O10       1.0  0.46944  0.25278  0.51030  1.0000
  H   H149      1.0  0.46286  0.24430  0.46207  1.0000
  N   N34       1.0  0.50452  0.25727  0.35349  1.0000
  C   C244      1.0  0.82910  0.31901  0.35358  1.0000
  N   N35       1.0  0.80128  0.28385  0.42067  1.0000
  C   C245      1.0  0.82168  0.30367  0.42803  1.0000
  C   C246      1.0  0.83437  0.30756  0.50641  1.0000
  O   O11       1.0  0.82419  0.30208  0.57819  1.0000
  O   O12       1.0  0.85307  0.30839  0.50635  1.0000
  H   H150      1.0  0.86142  0.31023  0.45787  1.0000
  N   N36       1.0  0.84839  0.33920  0.34949  1.0000
