data_image0
_chemical_formula_structural       CHCH2C12H5C6H3N2C10H5C6H3N2C2H2C3H2CHC2H2C3H2CHC2H2CHCHC8H7NC8H7NC7H3NH2CHC7H3NH2CHC5H2NHCH
_chemical_formula_sum              "C90 H63 N9"
_cell_length_a       44.4615
_cell_length_b       44.4313
_cell_length_c       14.9493
_cell_angle_alpha    90
_cell_angle_beta     90
_cell_angle_gamma    120.019

_space_group_name_H-M_alt    "P 1"
_space_group_IT_number       1

loop_
  _space_group_symop_operation_xyz
  'x, y, z'

loop_
  _atom_site_type_symbol
  _atom_site_label
  _atom_site_symmetry_multiplicity
  _atom_site_fract_x
  _atom_site_fract_y
  _atom_site_fract_z
  _atom_site_occupancy
  C   C1        1.0  0.03505  0.54710  0.29327  1.0000
  H   H1        1.0  0.01891  0.55532  0.26834  1.0000
  C   C2        1.0  0.02149  0.51638  0.34477  1.0000
  H   H2        1.0  0.03567  0.48382  0.41499  1.0000
  H   H3        1.0  0.01580  0.52192  0.52053  1.0000
  C   C3        1.0  0.04476  0.50613  0.37820  1.0000
  C   C4        1.0  0.07092  0.56726  0.27664  1.0000
  C   C5        1.0  0.37295  0.63054  0.33617  1.0000
  C   C6        1.0  0.26255  0.63276  0.34089  1.0000
  C   C7        1.0  0.36232  0.60195  0.27751  1.0000
  C   C8        1.0  0.37989  0.58298  0.27495  1.0000
  C   C9        1.0  0.40884  0.59201  0.33097  1.0000
  C   C10       1.0  0.38579  0.79947  0.28869  1.0000
  C   C11       1.0  0.36689  0.76289  0.28668  1.0000
  C   C12       1.0  0.24409  0.64381  0.28544  1.0000
  C   C13       1.0  0.20753  0.62609  0.28469  1.0000
  C   C14       1.0  0.18808  0.59653  0.33932  1.0000
  H   H4        1.0  0.37110  0.56241  0.23197  1.0000
  H   H5        1.0  0.34718  0.75088  0.24117  1.0000
  H   H6        1.0  0.37894  0.81307  0.24612  1.0000
  H   H7        1.0  0.25712  0.66470  0.24374  1.0000
  H   H8        1.0  0.19537  0.63520  0.24410  1.0000
  C   C15       1.0  0.29975  0.65080  0.34112  1.0000
  C   C16       1.0  0.31928  0.68757  0.34281  1.0000
  C   C17       1.0  0.35603  0.70589  0.34311  1.0000
  C   C18       1.0  0.37332  0.68646  0.34132  1.0000
  C   C19       1.0  0.35491  0.64967  0.33906  1.0000
  C   C20       1.0  0.31815  0.63242  0.33920  1.0000
  H   H9        1.0  0.39990  0.69943  0.33860  1.0000
  H   H10       1.0  0.30443  0.60582  0.33768  1.0000
  H   H11       1.0  0.34182  0.59485  0.23495  1.0000
  N   N1        1.0  0.15346  0.57869  0.34331  1.0000
  N   N2        1.0  0.42649  0.57501  0.33383  1.0000
  C   C21       1.0  0.63333  0.37252  0.32748  1.0000
  C   C22       1.0  0.74419  0.37144  0.33282  1.0000
  C   C23       1.0  0.64303  0.40150  0.27078  1.0000
  C   C24       1.0  0.62488  0.41995  0.27232  1.0000
  C   C25       1.0  0.59694  0.41046  0.33184  1.0000
  C   C26       1.0  0.62375  0.20419  0.27691  1.0000
  C   C27       1.0  0.64210  0.24078  0.27412  1.0000
  C   C28       1.0  0.76390  0.36210  0.27675  1.0000
  C   C29       1.0  0.80047  0.38027  0.28019  1.0000
  C   C30       1.0  0.81847  0.40792  0.34086  1.0000
  H   H12       1.0  0.63240  0.44059  0.22990  1.0000
  H   H13       1.0  0.66249  0.25292  0.23058  1.0000
  H   H14       1.0  0.63160  0.19080  0.23646  1.0000
  H   H15       1.0  0.75180  0.34238  0.23129  1.0000
  H   H16       1.0  0.81390  0.37304  0.23807  1.0000
  C   C31       1.0  0.70706  0.35317  0.32902  1.0000
  C   C32       1.0  0.68790  0.31640  0.32837  1.0000
  C   C33       1.0  0.65114  0.29770  0.32693  1.0000
  C   C34       1.0  0.63359  0.31692  0.32581  1.0000
  C   C35       1.0  0.65167  0.35370  0.32635  1.0000
  C   C36       1.0  0.68841  0.37130  0.32777  1.0000
  H   H17       1.0  0.60702  0.30381  0.32243  1.0000
  H   H18       1.0  0.70188  0.39791  0.32871  1.0000
  H   H19       1.0  0.66303  0.40905  0.22628  1.0000
  N   N3        1.0  0.85308  0.42463  0.33953  1.0000
  N   N4        1.0  0.58028  0.42842  0.32934  1.0000
  C   C37       1.0  0.52329  0.48078  0.27907  1.0000
  C   C38       1.0  0.54233  0.46363  0.29108  1.0000
  H   H20       1.0  0.52015  0.48728  0.21537  1.0000
  H   H21       1.0  0.55210  0.45798  0.23565  1.0000
  C   C39       1.0  0.44692  0.53648  0.30251  1.0000
  C   C40       1.0  0.43712  0.50305  0.26862  1.0000
  C   C41       1.0  0.45750  0.48754  0.28475  1.0000
  H   H22       1.0  0.41474  0.48939  0.23226  1.0000
  H   H23       1.0  0.44929  0.46311  0.26022  1.0000
  C   C42       1.0  0.42615  0.55103  0.28480  1.0000
  H   H24       1.0  0.41005  0.54203  0.23291  1.0000
  C   C43       1.0  0.52135  0.04161  0.28591  1.0000
  C   C44       1.0  0.53682  0.07780  0.29608  1.0000
  H   H25       1.0  0.51388  0.03133  0.22307  1.0000
  H   H26       1.0  0.54022  0.09265  0.24050  1.0000
  C   C45       1.0  0.46161  0.90986  0.31312  1.0000
  C   C46       1.0  0.49374  0.93201  0.27098  1.0000
  C   C47       1.0  0.51152  0.96804  0.28737  1.0000
  H   H27       1.0  0.50453  0.92209  0.22797  1.0000
  H   H28       1.0  0.53484  0.98334  0.25624  1.0000
  C   C48       1.0  0.44375  0.87470  0.29363  1.0000
  H   H29       1.0  0.44160  0.86733  0.22994  1.0000
  C   C49       1.0  0.96235  0.48157  0.28883  1.0000
  C   C50       1.0  0.92616  0.46279  0.30089  1.0000
  H   H30       1.0  0.97196  0.48444  0.22517  1.0000
  H   H31       1.0  0.91071  0.45297  0.24551  1.0000
  C   C51       1.0  0.09444  0.55744  0.31103  1.0000
  H   H32       1.0  0.07973  0.58949  0.23954  1.0000
  C   C52       1.0  0.12971  0.57789  0.29245  1.0000
  H   H33       1.0  0.13667  0.59282  0.23820  1.0000
  C   C53       1.0  0.37521  0.74303  0.34513  1.0000
  C   C54       1.0  0.41947  0.62040  0.38973  1.0000
  C   C55       1.0  0.40193  0.63942  0.39212  1.0000
  C   C56       1.0  0.40291  0.76108  0.40623  1.0000
  C   C57       1.0  0.42151  0.79766  0.40913  1.0000
  C   C58       1.0  0.41354  0.81726  0.34953  1.0000
  C   C59       1.0  0.20635  0.58562  0.39537  1.0000
  C   C60       1.0  0.24292  0.60331  0.39590  1.0000
  H   H34       1.0  0.44013  0.62743  0.43176  1.0000
  H   H35       1.0  0.41017  0.65948  0.43679  1.0000
  H   H36       1.0  0.40931  0.74769  0.45081  1.0000
  H   H37       1.0  0.44115  0.80993  0.45475  1.0000
  H   H38       1.0  0.19307  0.56456  0.43646  1.0000
  H   H39       1.0  0.25512  0.59476  0.43835  1.0000
  H   H40       1.0  0.30648  0.70132  0.34690  1.0000
  N   N5        1.0  0.43124  0.85174  0.35611  1.0000
  C   C61       1.0  0.63229  0.26050  0.32875  1.0000
  C   C62       1.0  0.58688  0.38132  0.38795  1.0000
  C   C63       1.0  0.60485  0.36276  0.38593  1.0000
  C   C64       1.0  0.60329  0.24215  0.38596  1.0000
  C   C65       1.0  0.58508  0.20560  0.38915  1.0000
  C   C66       1.0  0.59532  0.18609  0.33530  1.0000
  C   C67       1.0  0.79896  0.41756  0.39655  1.0000
  C   C68       1.0  0.76244  0.39955  0.39269  1.0000
  H   H41       1.0  0.56618  0.37318  0.43032  1.0000
  H   H42       1.0  0.59711  0.34218  0.42868  1.0000
  H   H43       1.0  0.59551  0.25528  0.42748  1.0000
  H   H44       1.0  0.56421  0.19340  0.43112  1.0000
  H   H45       1.0  0.81117  0.43803  0.43979  1.0000
  H   H46       1.0  0.74927  0.40702  0.43502  1.0000
  H   H47       1.0  0.70099  0.30293  0.33268  1.0000
  N   N6        1.0  0.57931  0.15146  0.33502  1.0000
  C   C69       1.0  0.54732  0.45382  0.37733  1.0000
  C   C70       1.0  0.53274  0.46216  0.45084  1.0000
  C   C71       1.0  0.51315  0.47914  0.44040  1.0000
  C   C72       1.0  0.50848  0.48872  0.35268  1.0000
  C   C73       1.0  0.48842  0.50499  0.33530  1.0000
  C   C74       1.0  0.49865  0.53860  0.36822  1.0000
  C   C75       1.0  0.47815  0.55405  0.35236  1.0000
  H   H48       1.0  0.52109  0.55201  0.40441  1.0000
  H   H49       1.0  0.48644  0.57843  0.37722  1.0000
  H   H50       1.0  0.53570  0.45492  0.51388  1.0000
  N   N7        1.0  0.49860  0.48441  0.51463  1.0000
  H   H51       1.0  0.50159  0.47693  0.57354  1.0000
  H   H52       1.0  0.48332  0.49408  0.51113  1.0000
  C   C76       1.0  0.56456  0.43522  0.39163  1.0000
  H   H53       1.0  0.56463  0.42667  0.45314  1.0000
  C   C77       1.0  0.54644  0.09329  0.38155  1.0000
  C   C78       1.0  0.54038  0.07134  0.45604  1.0000
  C   C79       1.0  0.52528  0.03483  0.44728  1.0000
  C   C80       1.0  0.51509  0.01962  0.36056  1.0000
  C   C81       1.0  0.49758  0.98298  0.34583  1.0000
  C   C82       1.0  0.46512  0.96084  0.38668  1.0000
  C   C83       1.0  0.44749  0.92476  0.37110  1.0000
  H   H54       1.0  0.45391  0.97091  0.42770  1.0000
  H   H55       1.0  0.42389  0.90956  0.40107  1.0000
  H   H56       1.0  0.54755  0.08224  0.51842  1.0000
  N   N8        1.0  0.52194  0.01595  0.52220  1.0000
  H   H57       1.0  0.52965  0.02704  0.58039  1.0000
  H   H58       1.0  0.51391  0.99125  0.51960  1.0000
  C   C84       1.0  0.56052  0.12884  0.39445  1.0000
  H   H59       1.0  0.55696  0.13700  0.45337  1.0000
  C   C85       1.0  0.91138  0.45823  0.38707  1.0000
  C   C86       1.0  0.93434  0.47292  0.46047  1.0000
  C   C87       1.0  0.97093  0.49224  0.44997  1.0000
  C   C88       1.0  0.98516  0.49650  0.36232  1.0000
  C   C89       1.0  0.08071  0.52643  0.36189  1.0000
  H   H60       1.0  0.09675  0.51813  0.38699  1.0000
  H   H61       1.0  0.92417  0.47027  0.52343  1.0000
  N   N9        1.0  0.99080  0.50694  0.52404  1.0000
  H   H62       1.0  0.98037  0.50412  0.58295  1.0000
  C   C90       1.0  0.87556  0.44131  0.40124  1.0000
  H   H63       1.0  0.86694  0.44220  0.46207  1.0000
