data_image0
_chemical_formula_structural       C4H3CH3CHC4H3CH3CHC3H2CHC3HN2C6H3N2C6H3N2C3H2CHC3H2CHC4H3CH3CHC2HC3HCHN2C3H3CHC2H5CHC4H3CH3CHC2HC3H2NC6H3N3C3H2CHC2H3C2H2CH
_chemical_formula_sum              "C84 H72 N12"
_cell_length_a       34.4053
_cell_length_b       34.4052
_cell_length_c       14.5155
_cell_angle_alpha    90
_cell_angle_beta     90
_cell_angle_gamma    120

_space_group_name_H-M_alt    "P 1"
_space_group_IT_number       1

loop_
  _space_group_symop_operation_xyz
  'x, y, z'

loop_
  _atom_site_type_symbol
  _atom_site_label
  _atom_site_symmetry_multiplicity
  _atom_site_fract_x
  _atom_site_fract_y
  _atom_site_fract_z
  _atom_site_occupancy
  C   C1        1.0  0.19063  0.10838  0.35913  1.0000
  C   C2        1.0  0.21561  0.12537  0.27563  1.0000
  C   C3        1.0  0.26291  0.14033  0.27406  1.0000
  C   C4        1.0  0.19263  0.12746  0.18950  1.0000
  H   H1        1.0  0.15695  0.11555  0.19769  1.0000
  H   H2        1.0  0.19556  0.10685  0.13592  1.0000
  H   H3        1.0  0.20812  0.16207  0.16532  1.0000
  C   C5        1.0  0.28847  0.15638  0.18540  1.0000
  H   H4        1.0  0.32370  0.16590  0.19028  1.0000
  H   H5        1.0  0.28740  0.18576  0.16058  1.0000
  H   H6        1.0  0.27361  0.12992  0.13361  1.0000
  C   C6        1.0  0.14571  0.09664  0.36893  1.0000
  H   H7        1.0  0.13934  0.12100  0.38464  1.0000
  C   C7        1.0  0.92593  0.09062  0.35909  1.0000
  C   C8        1.0  0.90896  0.09863  0.27560  1.0000
  C   C9        1.0  0.89399  0.13096  0.27407  1.0000
  C   C10       1.0  0.90691  0.07360  0.18943  1.0000
  H   H8        1.0  0.91883  0.04984  0.19760  1.0000
  H   H9        1.0  0.92755  0.09718  0.13590  1.0000
  H   H10       1.0  0.87231  0.05449  0.16519  1.0000
  C   C11       1.0  0.87799  0.14052  0.18540  1.0000
  H   H11       1.0  0.86846  0.16623  0.19032  1.0000
  H   H12       1.0  0.84862  0.11008  0.16050  1.0000
  H   H13       1.0  0.90447  0.15216  0.13367  1.0000
  C   C12       1.0  0.93764  0.05741  0.36890  1.0000
  H   H14       1.0  0.91330  0.02672  0.38481  1.0000
  C   C13       1.0  0.63280  0.15449  0.36943  1.0000
  C   C14       1.0  0.61739  0.16985  0.29553  1.0000
  C   C15       1.0  0.58179  0.17821  0.30732  1.0000
  H   H15       1.0  0.57431  0.19285  0.25388  1.0000
  H   H16       1.0  0.63399  0.17815  0.23366  1.0000
  C   C16       1.0  0.67286  0.15452  0.35639  1.0000
  H   H17       1.0  0.67291  0.12596  0.34698  1.0000
  C   C17       1.0  0.99717  0.03934  0.35971  1.0000
  C   C18       1.0  0.04463  0.06125  0.35937  1.0000
  C   C19       1.0  0.06812  0.03711  0.35984  1.0000
  H   H18       1.0  0.06237  0.09556  0.35746  1.0000
  N   N1        1.0  0.97805  0.06521  0.35648  1.0000
  N   N2        1.0  0.11310  0.05622  0.35663  1.0000
  C   C20       1.0  0.47859  0.20777  0.35787  1.0000
  C   C21       1.0  0.43117  0.18581  0.35519  1.0000
  C   C22       1.0  0.40793  0.21032  0.35648  1.0000
  C   C23       1.0  0.43368  0.25790  0.35786  1.0000
  C   C24       1.0  0.48119  0.28066  0.35830  1.0000
  C   C25       1.0  0.50283  0.25515  0.35777  1.0000
  H   H19       1.0  0.41774  0.27628  0.35890  1.0000
  H   H20       1.0  0.53724  0.27144  0.35692  1.0000
  H   H21       1.0  0.41360  0.15154  0.35285  1.0000
  N   N3        1.0  0.50075  0.18494  0.35460  1.0000
  N   N4        1.0  0.36296  0.19144  0.35444  1.0000
  C   C26       1.0  0.82653  0.27917  0.35799  1.0000
  C   C27       1.0  0.84848  0.25370  0.35528  1.0000
  C   C28       1.0  0.82396  0.20595  0.35656  1.0000
  C   C29       1.0  0.77638  0.18413  0.35792  1.0000
  C   C30       1.0  0.75363  0.20888  0.35838  1.0000
  C   C31       1.0  0.77915  0.25604  0.35789  1.0000
  H   H22       1.0  0.75800  0.14981  0.35891  1.0000
  H   H23       1.0  0.76286  0.27417  0.35705  1.0000
  H   H24       1.0  0.88274  0.27039  0.35289  1.0000
  N   N5        1.0  0.84283  0.17985  0.35445  1.0000
  N   N6        1.0  0.70952  0.19224  0.36216  1.0000
  C   C32       1.0  0.28512  0.13940  0.35670  1.0000
  C   C33       1.0  0.25945  0.12224  0.43785  1.0000
  C   C34       1.0  0.21331  0.10736  0.43924  1.0000
  H   H25       1.0  0.19641  0.09599  0.50038  1.0000
  H   H26       1.0  0.27424  0.12055  0.49787  1.0000
  C   C35       1.0  0.33017  0.15072  0.36170  1.0000
  H   H27       1.0  0.33656  0.12596  0.37268  1.0000
  C   C36       1.0  0.89487  0.15405  0.35676  1.0000
  C   C37       1.0  0.91197  0.14548  0.43793  1.0000
  C   C38       1.0  0.92686  0.11422  0.43928  1.0000
  H   H28       1.0  0.93819  0.10866  0.50043  1.0000
  H   H29       1.0  0.91361  0.16192  0.49799  1.0000
  C   C39       1.0  0.88355  0.18778  0.36181  1.0000
  H   H30       1.0  0.90829  0.21891  0.37295  1.0000
  C   C40       1.0  0.55979  0.17090  0.39304  1.0000
  C   C41       1.0  0.57316  0.15300  0.46761  1.0000
  C   C42       1.0  0.61001  0.14490  0.45596  1.0000
  C   C43       1.0  0.54937  0.14343  0.55852  1.0000
  H   H31       1.0  0.52040  0.14828  0.55855  1.0000
  H   H32       1.0  0.57243  0.16526  0.61155  1.0000
  H   H33       1.0  0.53678  0.10852  0.57796  1.0000
  C   C44       1.0  0.62549  0.12832  0.53561  1.0000
  H   H34       1.0  0.65377  0.12350  0.52004  1.0000
  H   H35       1.0  0.59826  0.09592  0.55882  1.0000
  H   H36       1.0  0.63584  0.15223  0.59240  1.0000
  C   C45       1.0  0.53400  0.19132  0.40628  1.0000
  H   H37       1.0  0.54458  0.21483  0.45505  1.0000
  C   C46       1.0  0.86435  0.45579  0.29566  1.0000
  C   C47       1.0  0.85600  0.41184  0.30752  1.0000
  H   H38       1.0  0.84150  0.38972  0.25404  1.0000
  C   C48       1.0  0.54762  0.40149  0.36940  1.0000
  C   C49       1.0  0.57839  0.41691  0.29549  1.0000
  C   C50       1.0  0.62235  0.45250  0.30728  1.0000
  H   H39       1.0  0.57009  0.40031  0.23361  1.0000
  C   C51       1.0  0.50758  0.36143  0.35634  1.0000
  H   H40       1.0  0.47898  0.36138  0.34693  1.0000
  N   N7        1.0  0.50865  0.32477  0.36210  1.0000
  N   N8        1.0  0.84933  0.32416  0.35471  1.0000
  C   C52       1.0  0.86325  0.39718  0.39330  1.0000
  C   C53       1.0  0.88122  0.42850  0.46781  1.0000
  C   C54       1.0  0.89086  0.41435  0.55876  1.0000
  H   H41       1.0  0.88602  0.38054  0.55892  1.0000
  H   H42       1.0  0.86906  0.41563  0.61182  1.0000
  H   H43       1.0  0.92578  0.43670  0.57807  1.0000
  C   C55       1.0  0.84306  0.35099  0.40675  1.0000
  H   H44       1.0  0.81960  0.33804  0.45560  1.0000
  C   C56       1.0  0.56082  0.42426  0.45592  1.0000
  C   C57       1.0  0.52876  0.40879  0.53558  1.0000
  H   H45       1.0  0.49566  0.38051  0.52001  1.0000
  H   H46       1.0  0.52359  0.43602  0.55880  1.0000
  H   H47       1.0  0.54233  0.39843  0.59237  1.0000
  H   H48       1.0  0.85622  0.46413  0.23363  1.0000
  H   H49       1.0  0.64447  0.45999  0.25384  1.0000
  C   C58       1.0  0.60576  0.46112  0.46758  1.0000
  H   H50       1.0  0.61876  0.46183  0.61152  1.0000
  C   C59       1.0  0.94369  0.84364  0.35918  1.0000
  C   C60       1.0  0.93570  0.81868  0.27566  1.0000
  C   C61       1.0  0.90336  0.77137  0.27407  1.0000
  C   C62       1.0  0.96077  0.84166  0.18953  1.0000
  H   H51       1.0  0.98454  0.87734  0.19774  1.0000
  H   H52       1.0  0.93722  0.83875  0.13597  1.0000
  H   H53       1.0  0.97988  0.82618  0.16533  1.0000
  C   C63       1.0  0.89384  0.74582  0.18540  1.0000
  H   H54       1.0  0.86813  0.71060  0.19027  1.0000
  H   H55       1.0  0.92429  0.74690  0.16056  1.0000
  H   H56       1.0  0.88224  0.76069  0.13362  1.0000
  C   C64       1.0  0.97687  0.88857  0.36899  1.0000
  H   H57       1.0  0.00756  0.89493  0.38503  1.0000
  C   C65       1.0  0.87974  0.48661  0.36948  1.0000
  C   C66       1.0  0.87975  0.52665  0.35631  1.0000
  H   H58       1.0  0.90831  0.55524  0.34684  1.0000
  C   C67       1.0  0.04257  0.98965  0.35940  1.0000
  C   C68       1.0  0.99493  0.96616  0.35982  1.0000
  C   C69       1.0  0.97302  0.99171  0.35937  1.0000
  H   H59       1.0  0.05913  0.97190  0.35751  1.0000
  H   H60       1.0  0.93872  0.97515  0.35739  1.0000
  N   N9        1.0  0.96906  0.92117  0.35653  1.0000
  C   C70       1.0  0.75510  0.55569  0.35783  1.0000
  C   C71       1.0  0.78057  0.60310  0.35516  1.0000
  C   C72       1.0  0.82833  0.62634  0.35644  1.0000
  C   C73       1.0  0.85015  0.60058  0.35783  1.0000
  C   C74       1.0  0.82539  0.55308  0.35827  1.0000
  C   C75       1.0  0.77824  0.53144  0.35774  1.0000
  H   H61       1.0  0.88446  0.61652  0.35887  1.0000
  H   H62       1.0  0.76012  0.49703  0.35689  1.0000
  H   H63       1.0  0.76389  0.62068  0.35281  1.0000
  N   N10       1.0  0.71012  0.53353  0.35457  1.0000
  N   N11       1.0  0.85443  0.67132  0.35441  1.0000
  N   N12       1.0  0.84204  0.52561  0.36210  1.0000
  C   C76       1.0  0.88022  0.74915  0.35672  1.0000
  C   C77       1.0  0.88875  0.77482  0.43788  1.0000
  C   C78       1.0  0.92001  0.82095  0.43929  1.0000
  H   H64       1.0  0.92553  0.83784  0.50043  1.0000
  H   H65       1.0  0.87226  0.76001  0.49790  1.0000
  C   C79       1.0  0.84649  0.70410  0.36170  1.0000
  H   H66       1.0  0.81535  0.69772  0.37268  1.0000
  C   C80       1.0  0.88931  0.47344  0.45605  1.0000
  C   C81       1.0  0.90592  0.50554  0.53562  1.0000
  H   H67       1.0  0.91073  0.53863  0.51998  1.0000
  H   H68       1.0  0.93833  0.51073  0.55883  1.0000
  H   H69       1.0  0.88202  0.49201  0.59245  1.0000
  C   C82       1.0  0.63703  0.47449  0.39301  1.0000
  C   C83       1.0  0.61999  0.48490  0.55850  1.0000
  H   H70       1.0  0.65381  0.51387  0.55854  1.0000
  H   H71       1.0  0.59767  0.49749  0.57795  1.0000
  C   C84       1.0  0.68325  0.50028  0.40625  1.0000
  H   H72       1.0  0.69617  0.48970  0.45501  1.0000
