data_image0
_chemical_formula_structural       C3HNHC3HNO2CH2CHC17H11C17H12C2HC3HNH2NH2C2HC3HNH2NH2C2HNH2C11H8C13H9C7H2N2O4C7H2N2O4C4HNO2
_chemical_formula_sum              "C96 H66 N12 O12"
_cell_length_a       44.8974
_cell_length_b       44.872
_cell_length_c       14.8744
_cell_angle_alpha    90
_cell_angle_beta     90
_cell_angle_gamma    120.03

_space_group_name_H-M_alt    "P 1"
_space_group_IT_number       1

loop_
  _space_group_symop_operation_xyz
  'x, y, z'

loop_
  _atom_site_type_symbol
  _atom_site_label
  _atom_site_symmetry_multiplicity
  _atom_site_fract_x
  _atom_site_fract_y
  _atom_site_fract_z
  _atom_site_occupancy
  C   C1        1.0  0.09845  0.54635  0.33545  1.0000
  C   C2        1.0  0.07964  0.54429  0.25627  1.0000
  C   C3        1.0  0.04320  0.52673  0.26036  1.0000
  H   H1        1.0  0.02958  0.52517  0.20354  1.0000
  N   N1        1.0  0.09516  0.55774  0.17601  1.0000
  H   H2        1.0  0.08178  0.55558  0.12240  1.0000
  C   C4        1.0  0.02491  0.51081  0.33997  1.0000
  C   C5        1.0  0.04374  0.51310  0.41871  1.0000
  C   C6        1.0  0.08013  0.53070  0.41526  1.0000
  H   H3        1.0  0.09339  0.53214  0.47271  1.0000
  N   N2        1.0  0.02585  0.49731  0.49910  1.0000
  O   O1        1.0  0.03340  0.51902  0.56094  1.0000
  O   O2        1.0  0.03226  0.47449  0.52543  1.0000
  C   C7        1.0  0.15229  0.54475  0.35291  1.0000
  H   H4        1.0  0.13852  0.51853  0.35977  1.0000
  H   H5        1.0  0.11993  0.56885  0.16851  1.0000
  C   C8        1.0  0.13513  0.56350  0.33828  1.0000
  H   H6        1.0  0.14350  0.61408  0.32127  1.0000
  C   C9        1.0  0.18845  0.56164  0.35809  1.0000
  C   C10       1.0  0.15518  0.59969  0.33006  1.0000
  C   C11       1.0  0.45333  0.85510  0.32832  1.0000
  C   C12       1.0  0.43397  0.81889  0.33397  1.0000
  C   C13       1.0  0.38053  0.74302  0.30493  1.0000
  C   C14       1.0  0.36009  0.70735  0.31275  1.0000
  C   C15       1.0  0.32371  0.69093  0.31215  1.0000
  C   C16       1.0  0.30293  0.65461  0.31243  1.0000
  C   C17       1.0  0.31933  0.63463  0.31155  1.0000
  C   C18       1.0  0.35562  0.65017  0.31215  1.0000
  C   C19       1.0  0.37560  0.68657  0.31185  1.0000
  C   C20       1.0  0.37085  0.62976  0.30409  1.0000
  C   C21       1.0  0.41213  0.61247  0.34921  1.0000
  C   C22       1.0  0.39366  0.57654  0.33283  1.0000
  C   C23       1.0  0.41071  0.55740  0.32721  1.0000
  C   C24       1.0  0.26728  0.63939  0.30464  1.0000
  C   C25       1.0  0.20868  0.59783  0.34893  1.0000
  H   H7        1.0  0.47927  0.86667  0.31730  1.0000
  H   H8        1.0  0.44651  0.80525  0.32734  1.0000
  H   H9        1.0  0.40189  0.69814  0.30861  1.0000
  H   H10       1.0  0.31217  0.70567  0.30917  1.0000
  H   H11       1.0  0.30460  0.60833  0.30814  1.0000
  H   H12       1.0  0.39649  0.53142  0.31635  1.0000
  H   H13       1.0  0.36745  0.56381  0.32625  1.0000
  H   H14       1.0  0.19991  0.54713  0.36880  1.0000
  H   H15       1.0  0.36234  0.61248  0.25473  1.0000
  H   H16       1.0  0.39788  0.75181  0.25574  1.0000
  H   H17       1.0  0.25849  0.64829  0.25629  1.0000
  C   C26       1.0  0.56072  0.15321  0.36439  1.0000
  C   C27       1.0  0.58043  0.18946  0.36673  1.0000
  C   C28       1.0  0.63140  0.26523  0.30801  1.0000
  C   C29       1.0  0.65231  0.30105  0.31354  1.0000
  C   C30       1.0  0.68871  0.31739  0.31283  1.0000
  C   C31       1.0  0.70979  0.35370  0.31335  1.0000
  C   C32       1.0  0.69347  0.37377  0.31265  1.0000
  C   C33       1.0  0.65718  0.35853  0.31332  1.0000
  C   C34       1.0  0.63710  0.32211  0.31276  1.0000
  C   C35       1.0  0.64236  0.37948  0.30742  1.0000
  C   C36       1.0  0.59942  0.39508  0.34500  1.0000
  C   C37       1.0  0.61787  0.43057  0.36609  1.0000
  C   C38       1.0  0.60162  0.45053  0.36375  1.0000
  C   C39       1.0  0.74557  0.36854  0.30748  1.0000
  C   C40       1.0  0.80413  0.41149  0.34492  1.0000
  C   C41       1.0  0.82443  0.44646  0.32003  1.0000
  C   C42       1.0  0.86058  0.46253  0.31736  1.0000
  H   H18       1.0  0.53522  0.14153  0.38124  1.0000
  H   H19       1.0  0.56872  0.20310  0.38523  1.0000
  H   H20       1.0  0.61083  0.31066  0.30990  1.0000
  H   H21       1.0  0.70014  0.30255  0.31003  1.0000
  H   H22       1.0  0.70831  0.40006  0.30965  1.0000
  H   H23       1.0  0.61556  0.47594  0.38153  1.0000
  H   H24       1.0  0.64311  0.44204  0.38539  1.0000
  H   H25       1.0  0.87435  0.48780  0.29825  1.0000
  H   H26       1.0  0.81305  0.46064  0.30389  1.0000
  H   H27       1.0  0.65380  0.39989  0.26705  1.0000
  H   H28       1.0  0.61111  0.25617  0.26725  1.0000
  H   H29       1.0  0.75451  0.35702  0.26739  1.0000
  C   C43       1.0  0.54820  0.50750  0.28897  1.0000
  C   C44       1.0  0.56345  0.48643  0.29094  1.0000
  H   H30       1.0  0.58532  0.49373  0.25410  1.0000
  C   C45       1.0  0.46408  0.55411  0.33515  1.0000
  C   C46       1.0  0.46613  0.53731  0.25604  1.0000
  C   C47       1.0  0.48370  0.51844  0.26018  1.0000
  H   H31       1.0  0.48522  0.50632  0.20340  1.0000
  N   N3        1.0  0.56400  0.53726  0.24070  1.0000
  H   H32       1.0  0.58534  0.54419  0.20838  1.0000
  H   H33       1.0  0.55562  0.55345  0.24050  1.0000
  N   N4        1.0  0.45274  0.53936  0.17569  1.0000
  H   H34       1.0  0.45495  0.52815  0.12211  1.0000
  H   H35       1.0  0.44181  0.55317  0.16793  1.0000
  C   C48       1.0  0.50575  0.04296  0.28461  1.0000
  C   C49       1.0  0.52645  0.07933  0.28810  1.0000
  H   H36       1.0  0.51971  0.09394  0.24943  1.0000
  C   C50       1.0  0.45719  0.91207  0.33542  1.0000
  C   C51       1.0  0.47487  0.93065  0.25677  1.0000
  C   C52       1.0  0.49427  0.96711  0.26052  1.0000
  H   H37       1.0  0.50701  0.98053  0.20405  1.0000
  N   N5        1.0  0.47714  0.02901  0.23177  1.0000
  H   H38       1.0  0.47090  0.04346  0.19693  1.0000
  H   H39       1.0  0.46118  0.00441  0.22980  1.0000
  N   N6        1.0  0.47314  0.91495  0.17703  1.0000
  H   H40       1.0  0.48476  0.92823  0.12359  1.0000
  H   H41       1.0  0.45868  0.89026  0.16913  1.0000
  C   C53       1.0  0.96768  0.46219  0.29022  1.0000
  C   C54       1.0  0.93137  0.44699  0.29210  1.0000
  H   H42       1.0  0.91674  0.42492  0.25593  1.0000
  N   N7        1.0  0.98158  0.44612  0.24289  1.0000
  H   H43       1.0  0.96712  0.42462  0.21118  1.0000
  H   H44       1.0  0.00615  0.45451  0.24272  1.0000
  C   C55       1.0  0.43749  0.87531  0.33901  1.0000
  C   C56       1.0  0.39808  0.80166  0.35038  1.0000
  C   C57       1.0  0.38242  0.82203  0.36246  1.0000
  C   C58       1.0  0.40177  0.85821  0.35690  1.0000
  C   C59       1.0  0.37830  0.76589  0.35909  1.0000
  C   C60       1.0  0.39596  0.63204  0.35822  1.0000
  C   C61       1.0  0.44819  0.62840  0.36115  1.0000
  C   C62       1.0  0.44678  0.57353  0.33812  1.0000
  C   C63       1.0  0.46523  0.60928  0.35575  1.0000
  C   C64       1.0  0.24441  0.61385  0.35778  1.0000
  C   C65       1.0  0.19137  0.61659  0.33552  1.0000
  H   H45       1.0  0.38948  0.87203  0.36566  1.0000
  H   H46       1.0  0.35660  0.81065  0.37540  1.0000
  H   H47       1.0  0.20495  0.64288  0.33101  1.0000
  H   H48       1.0  0.46249  0.65425  0.37405  1.0000
  H   H49       1.0  0.49134  0.62174  0.36462  1.0000
  H   H50       1.0  0.40447  0.64962  0.40693  1.0000
  H   H51       1.0  0.36066  0.75683  0.40765  1.0000
  H   H52       1.0  0.25344  0.60492  0.40554  1.0000
  C   C66       1.0  0.57597  0.13309  0.34268  1.0000
  C   C67       1.0  0.61599  0.20676  0.34656  1.0000
  C   C68       1.0  0.63119  0.18675  0.32395  1.0000
  C   C69       1.0  0.61145  0.15055  0.32136  1.0000
  C   C70       1.0  0.63651  0.24236  0.35422  1.0000
  C   C71       1.0  0.61422  0.37434  0.35285  1.0000
  C   C72       1.0  0.56434  0.38021  0.32128  1.0000
  C   C73       1.0  0.56638  0.43564  0.34100  1.0000
  C   C74       1.0  0.54821  0.40023  0.31852  1.0000
  C   C75       1.0  0.76860  0.39677  0.35264  1.0000
  C   C76       1.0  0.82109  0.39310  0.36730  1.0000
  C   C77       1.0  0.87773  0.44442  0.34107  1.0000
  C   C78       1.0  0.85729  0.40930  0.36504  1.0000
  H   H53       1.0  0.62332  0.13698  0.30393  1.0000
  H   H54       1.0  0.65691  0.19837  0.30941  1.0000
  H   H55       1.0  0.80724  0.36794  0.38740  1.0000
  H   H56       1.0  0.55012  0.35455  0.30606  1.0000
  H   H57       1.0  0.52285  0.38859  0.30030  1.0000
  H   H58       1.0  0.86870  0.39540  0.38367  1.0000
  H   H59       1.0  0.60246  0.35405  0.39335  1.0000
  H   H60       1.0  0.65672  0.25105  0.39504  1.0000
  H   H61       1.0  0.76012  0.40861  0.39296  1.0000
  C   C79       1.0  0.54954  0.45564  0.34159  1.0000
  C   C80       1.0  0.51930  0.44585  0.39266  1.0000
  C   C81       1.0  0.50364  0.46649  0.39007  1.0000
  C   C82       1.0  0.51748  0.49712  0.33898  1.0000
  C   C83       1.0  0.49976  0.51623  0.33965  1.0000
  C   C84       1.0  0.49758  0.53290  0.41828  1.0000
  C   C85       1.0  0.47987  0.55158  0.41485  1.0000
  H   H62       1.0  0.47847  0.56343  0.47229  1.0000
  H   H63       1.0  0.48168  0.45887  0.42678  1.0000
  N   N8        1.0  0.51359  0.53106  0.49851  1.0000
  N   N9        1.0  0.50576  0.41627  0.44827  1.0000
  O   O3        1.0  0.49207  0.51699  0.56079  1.0000
  O   O4        1.0  0.47539  0.39457  0.42689  1.0000
  O   O5        1.0  0.53641  0.56039  0.52421  1.0000
  O   O6        1.0  0.50631  0.42392  0.52977  1.0000
  C   C86       1.0  0.55621  0.09624  0.34253  1.0000
  C   C87       1.0  0.56546  0.07579  0.39547  1.0000
  C   C88       1.0  0.54503  0.03946  0.39202  1.0000
  C   C89       1.0  0.51526  0.02260  0.33768  1.0000
  C   C90       1.0  0.49598  0.98573  0.33891  1.0000
  C   C91       1.0  0.47841  0.96714  0.41707  1.0000
  C   C92       1.0  0.45933  0.93072  0.41419  1.0000
  H   H64       1.0  0.44692  0.91770  0.47137  1.0000
  H   H65       1.0  0.55216  0.02512  0.43047  1.0000
  N   N10       1.0  0.47978  0.98527  0.49638  1.0000
  N   N11       1.0  0.59441  0.09189  0.45317  1.0000
  O   O7        1.0  0.49311  0.97772  0.56031  1.0000
  O   O8        1.0  0.61654  0.08364  0.43328  1.0000
  O   O9        1.0  0.45038  0.97919  0.51989  1.0000
  O   O10       1.0  0.58604  0.08436  0.53415  1.0000
  C   C93       1.0  0.91457  0.46121  0.34172  1.0000
  C   C94       1.0  0.93511  0.49172  0.39184  1.0000
  C   C95       1.0  0.97140  0.50731  0.38939  1.0000
  C   C96       1.0  0.98810  0.49316  0.33929  1.0000
  H   H66       1.0  0.98581  0.52945  0.42544  1.0000
  N   N12       1.0  0.91915  0.50562  0.44641  1.0000
  O   O11       1.0  0.92792  0.53590  0.42374  1.0000
  O   O12       1.0  0.92624  0.50549  0.52809  1.0000
