data_image0
_chemical_formula_structural       C9H8C8H8C8H8C5H4NC5H4NC5H4NC5H4NC5H4NC5H4NC3NC3NC5NC4NC20H18C4H4C3NC3NC5NC5NC20H18C4H4C3NC3NC5NC5NC20H18C4H4C4HC3H2NO2NC4HC3H2NO2NC4HC3H2NO2NC4HC3H2NO2NC4HC3H2NO2NC4HC3H2NO2N
_chemical_formula_sum              "C216 H132 N30 O12"
_cell_length_a       58.3118
_cell_length_b       58.3118
_cell_length_c       15.0117
_cell_angle_alpha    90.0142
_cell_angle_beta     89.9858
_cell_angle_gamma    120

_space_group_name_H-M_alt    "P 1"
_space_group_IT_number       1

loop_
  _space_group_symop_operation_xyz
  'x, y, z'

loop_
  _atom_site_type_symbol
  _atom_site_label
  _atom_site_symmetry_multiplicity
  _atom_site_fract_x
  _atom_site_fract_y
  _atom_site_fract_z
  _atom_site_occupancy
  C   C1        1.0  0.99962  0.48897  0.35525  1.0000
  C   C2        1.0  0.94498  0.58059  0.28716  1.0000
  C   C3        1.0  0.92570  0.58824  0.29528  1.0000
  C   C4        1.0  0.94290  0.44041  0.28849  1.0000
  C   C5        1.0  0.92326  0.41362  0.29700  1.0000
  C   C6        1.0  0.12280  0.51119  0.29522  1.0000
  C   C7        1.0  0.10360  0.51896  0.28701  1.0000
  C   C8        1.0  0.10567  0.65913  0.28850  1.0000
  C   C9        1.0  0.12535  0.68592  0.29697  1.0000
  H   H1        1.0  0.13176  0.69735  0.24071  1.0000
  H   H2        1.0  0.09830  0.65170  0.22666  1.0000
  H   H3        1.0  0.09960  0.52363  0.22539  1.0000
  H   H4        1.0  0.13224  0.51036  0.23886  1.0000
  H   H5        1.0  0.95029  0.44784  0.22665  1.0000
  H   H6        1.0  0.91686  0.40218  0.24075  1.0000
  H   H7        1.0  0.91627  0.58904  0.23887  1.0000
  H   H8        1.0  0.94905  0.57596  0.22556  1.0000
  C   C10       1.0  0.49274  0.43809  0.28702  1.0000
  C   C11       1.0  0.48507  0.41115  0.29514  1.0000
  C   C12       1.0  0.63291  0.57621  0.28814  1.0000
  C   C13       1.0  0.65971  0.58340  0.29669  1.0000
  C   C14       1.0  0.56208  0.68527  0.29510  1.0000
  C   C15       1.0  0.55431  0.65830  0.28693  1.0000
  C   C16       1.0  0.41417  0.52028  0.28830  1.0000
  C   C17       1.0  0.38740  0.51320  0.29681  1.0000
  H   H9        1.0  0.37598  0.50824  0.24055  1.0000
  H   H10       1.0  0.42161  0.52037  0.22643  1.0000
  H   H11       1.0  0.54962  0.64962  0.22533  1.0000
  H   H12       1.0  0.56288  0.69552  0.23875  1.0000
  H   H13       1.0  0.62549  0.57616  0.22629  1.0000
  H   H14       1.0  0.67116  0.58845  0.24047  1.0000
  H   H15       1.0  0.48429  0.40091  0.23874  1.0000
  H   H16       1.0  0.49740  0.44678  0.22543  1.0000
  C   C18       1.0  0.63522  0.12833  0.28699  1.0000
  C   C19       1.0  0.66215  0.14762  0.29518  1.0000
  C   C20       1.0  0.49705  0.13035  0.28810  1.0000
  C   C21       1.0  0.48987  0.14997  0.29660  1.0000
  C   C22       1.0  0.38799  0.95052  0.29493  1.0000
  C   C23       1.0  0.41495  0.96971  0.28668  1.0000
  C   C24       1.0  0.55303  0.96759  0.28810  1.0000
  C   C25       1.0  0.56012  0.94790  0.29663  1.0000
  H   H17       1.0  0.56510  0.94144  0.24039  1.0000
  H   H18       1.0  0.55297  0.97494  0.22624  1.0000
  H   H19       1.0  0.42362  0.97372  0.22504  1.0000
  H   H20       1.0  0.37771  0.94109  0.23858  1.0000
  H   H21       1.0  0.49707  0.12294  0.22627  1.0000
  H   H22       1.0  0.48477  0.15632  0.24039  1.0000
  H   H23       1.0  0.67240  0.15707  0.23882  1.0000
  H   H24       1.0  0.62655  0.12429  0.22537  1.0000
  C   C26       1.0  0.20079  0.50249  0.25604  1.0000
  C   C27       1.0  0.22452  0.50177  0.25400  1.0000
  C   C28       1.0  0.28410  0.52376  0.28130  1.0000
  C   C29       1.0  0.30913  0.52568  0.28204  1.0000
  C   C30       1.0  0.31337  0.50749  0.33096  1.0000
  H   H25       1.0  0.28194  0.53792  0.24825  1.0000
  H   H26       1.0  0.32449  0.54106  0.24910  1.0000
  H   H27       1.0  0.19175  0.50218  0.19723  1.0000
  H   H28       1.0  0.23206  0.50075  0.19345  1.0000
  N   N1        1.0  0.33784  0.51137  0.33260  1.0000
  C   C31       1.0  0.57080  0.77197  0.25588  1.0000
  C   C32       1.0  0.57151  0.79642  0.25384  1.0000
  C   C33       1.0  0.54953  0.83402  0.28112  1.0000
  C   C34       1.0  0.54761  0.85712  0.28187  1.0000
  C   C35       1.0  0.56579  0.87956  0.33080  1.0000
  H   H29       1.0  0.53537  0.81770  0.24807  1.0000
  H   H30       1.0  0.53222  0.85710  0.24891  1.0000
  H   H31       1.0  0.57111  0.76323  0.19707  1.0000
  H   H32       1.0  0.57254  0.80497  0.19330  1.0000
  N   N2        1.0  0.56191  0.90015  0.33242  1.0000
  C   C36       1.0  0.30132  0.87247  0.25598  1.0000
  C   C37       1.0  0.27688  0.84873  0.25402  1.0000
  C   C38       1.0  0.23926  0.78916  0.28146  1.0000
  C   C39       1.0  0.21615  0.76415  0.28223  1.0000
  C   C40       1.0  0.19372  0.75993  0.33114  1.0000
  H   H33       1.0  0.25558  0.79130  0.24841  1.0000
  H   H34       1.0  0.21616  0.74877  0.24929  1.0000
  H   H35       1.0  0.31005  0.88150  0.19715  1.0000
  H   H36       1.0  0.26832  0.84119  0.19350  1.0000
  N   N3        1.0  0.17311  0.73547  0.33275  1.0000
  C   C41       1.0  0.84722  0.59608  0.25602  1.0000
  C   C42       1.0  0.82334  0.59651  0.25396  1.0000
  C   C43       1.0  0.76367  0.57396  0.28107  1.0000
  C   C44       1.0  0.73852  0.57177  0.28174  1.0000
  C   C45       1.0  0.73403  0.58978  0.33074  1.0000
  H   H37       1.0  0.76602  0.55992  0.24797  1.0000
  H   H38       1.0  0.72326  0.55631  0.24869  1.0000
  H   H39       1.0  0.85633  0.59650  0.19722  1.0000
  H   H40       1.0  0.81577  0.59744  0.19340  1.0000
  N   N4        1.0  0.70947  0.58567  0.33224  1.0000
  C   C46       1.0  0.47721  0.32482  0.25588  1.0000
  C   C47       1.0  0.47679  0.30051  0.25382  1.0000
  C   C48       1.0  0.49934  0.26339  0.28094  1.0000
  C   C49       1.0  0.50153  0.24044  0.28160  1.0000
  C   C50       1.0  0.48351  0.21793  0.33058  1.0000
  H   H41       1.0  0.51338  0.27978  0.24784  1.0000
  H   H42       1.0  0.51699  0.24063  0.24855  1.0000
  H   H43       1.0  0.47679  0.33350  0.19708  1.0000
  H   H44       1.0  0.47585  0.29200  0.19326  1.0000
  N   N5        1.0  0.48762  0.19749  0.33208  1.0000
  C   C51       1.0  0.74850  0.22606  0.25601  1.0000
  C   C52       1.0  0.77281  0.24993  0.25395  1.0000
  C   C53       1.0  0.80990  0.30961  0.28104  1.0000
  C   C54       1.0  0.83284  0.33476  0.28175  1.0000
  C   C55       1.0  0.85534  0.33928  0.33080  1.0000
  H   H45       1.0  0.79352  0.30725  0.24791  1.0000
  H   H46       1.0  0.83264  0.35002  0.24869  1.0000
  H   H47       1.0  0.73982  0.21695  0.19721  1.0000
  H   H48       1.0  0.78133  0.25750  0.19340  1.0000
  N   N6        1.0  0.87577  0.36385  0.33238  1.0000
  C   C56       1.0  0.04136  0.62986  0.35800  1.0000
  C   C57       1.0  0.01407  0.61720  0.35746  1.0000
  C   C58       1.0  0.00434  0.58990  0.35530  1.0000
  N   N7        1.0  0.02602  0.58706  0.35310  1.0000
  C   C59       1.0  0.04894  0.61060  0.35560  1.0000
  C   C60       1.0  0.07555  0.61590  0.35709  1.0000
  C   C61       1.0  0.08325  0.59634  0.35618  1.0000
  N   N8        1.0  0.06737  0.56977  0.35401  1.0000
  C   C62       1.0  0.08142  0.55708  0.35554  1.0000
  C   C63       1.0  0.10806  0.57682  0.35843  1.0000
  C   C64       1.0  0.10919  0.60103  0.35850  1.0000
  C   C65       1.0  0.07150  0.52935  0.35600  1.0000
  C   C66       1.0  0.04422  0.50966  0.35487  1.0000
  N   N9        1.0  0.02253  0.51250  0.35275  1.0000
  C   C67       1.0  0.00719  0.46970  0.35731  1.0000
  C   C68       1.0  0.03448  0.48236  0.35678  1.0000
  C   C69       1.0  0.97301  0.48367  0.35704  1.0000
  C   C70       1.0  0.96531  0.50322  0.35622  1.0000
  N   N10       1.0  0.98118  0.52980  0.35409  1.0000
  C   C71       1.0  0.96714  0.54248  0.35568  1.0000
  C   C72       1.0  0.94050  0.52274  0.35862  1.0000
  C   C73       1.0  0.93937  0.49853  0.35868  1.0000
  C   C74       1.0  0.97706  0.57022  0.35637  1.0000
  C   C75       1.0  0.95821  0.57884  0.36337  1.0000
  C   C76       1.0  0.91923  0.59439  0.37962  1.0000
  C   C77       1.0  0.93296  0.59304  0.45537  1.0000
  C   C78       1.0  0.95213  0.58526  0.44750  1.0000
  C   C79       1.0  0.95256  0.45677  0.36454  1.0000
  C   C80       1.0  0.91281  0.40259  0.38162  1.0000
  C   C81       1.0  0.92265  0.41914  0.45749  1.0000
  C   C82       1.0  0.94228  0.44591  0.44912  1.0000
  C   C83       1.0  0.09034  0.52071  0.36313  1.0000
  C   C84       1.0  0.09630  0.51421  0.44727  1.0000
  C   C85       1.0  0.11540  0.50634  0.45525  1.0000
  C   C86       1.0  0.12915  0.50494  0.37957  1.0000
  C   C87       1.0  0.09600  0.64280  0.36458  1.0000
  C   C88       1.0  0.10629  0.65367  0.44915  1.0000
  C   C89       1.0  0.13579  0.69695  0.38158  1.0000
  C   C90       1.0  0.12593  0.68043  0.45748  1.0000
  H   H49       1.0  0.13300  0.68772  0.51976  1.0000
  H   H50       1.0  0.09943  0.64221  0.50527  1.0000
  H   H51       1.0  0.05344  0.64995  0.36069  1.0000
  H   H52       1.0  0.00337  0.62672  0.35957  1.0000
  H   H53       1.0  0.02523  0.57023  0.35151  1.0000
  H   H54       1.0  0.02332  0.52934  0.35175  1.0000
  H   H55       1.0  0.12628  0.61895  0.36094  1.0000
  H   H56       1.0  0.12421  0.57435  0.36088  1.0000
  H   H57       1.0  0.08701  0.51545  0.50342  1.0000
  H   H58       1.0  0.11955  0.50218  0.51749  1.0000
  H   H59       1.0  0.04519  0.47285  0.35883  1.0000
  H   H60       1.0  0.99512  0.44961  0.36015  1.0000
  H   H61       1.0  0.92435  0.52521  0.36131  1.0000
  H   H62       1.0  0.92228  0.48062  0.36121  1.0000
  H   H63       1.0  0.94912  0.45738  0.50523  1.0000
  H   H64       1.0  0.91559  0.41186  0.51978  1.0000
  H   H65       1.0  0.96140  0.58401  0.50370  1.0000
  H   H66       1.0  0.92870  0.59710  0.51761  1.0000
  C   C91       1.0  0.89362  0.37621  0.39196  1.0000
  C   C92       1.0  0.14882  0.49838  0.39050  1.0000
  C   C93       1.0  0.15502  0.72332  0.39182  1.0000
  C   C94       1.0  0.89943  0.60078  0.39044  1.0000
  H   H67       1.0  0.89281  0.36721  0.44919  1.0000
  H   H68       1.0  0.14849  0.48834  0.44458  1.0000
  H   H69       1.0  0.15579  0.73239  0.44886  1.0000
  H   H70       1.0  0.89965  0.61078  0.44452  1.0000
  C   C95       1.0  0.44344  0.48518  0.35691  1.0000
  C   C96       1.0  0.45610  0.47055  0.35637  1.0000
  C   C97       1.0  0.48340  0.48812  0.35472  1.0000
  N   N11       1.0  0.48624  0.51264  0.35259  1.0000
  C   C98       1.0  0.46270  0.51202  0.35493  1.0000
  C   C99       1.0  0.45740  0.53333  0.35682  1.0000
  C   C100      1.0  0.47696  0.56058  0.35612  1.0000
  N   N12       1.0  0.50353  0.57129  0.35384  1.0000
  C   C101      1.0  0.51621  0.59802  0.35556  1.0000
  C   C102      1.0  0.49648  0.60492  0.35870  1.0000
  C   C103      1.0  0.47227  0.58184  0.35880  1.0000
  C   C104      1.0  0.54395  0.61584  0.35598  1.0000
  C   C105      1.0  0.56364  0.60825  0.35461  1.0000
  N   N13       1.0  0.56080  0.58372  0.35245  1.0000
  C   C106      1.0  0.58434  0.58435  0.35485  1.0000
  C   C107      1.0  0.60360  0.61119  0.35693  1.0000
  C   C108      1.0  0.59094  0.62582  0.35632  1.0000
  C   C109      1.0  0.58964  0.56304  0.35661  1.0000
  C   C110      1.0  0.57009  0.53579  0.35608  1.0000
  N   N14       1.0  0.54351  0.52508  0.35391  1.0000
  C   C111      1.0  0.53083  0.49835  0.35572  1.0000
  C   C112      1.0  0.55057  0.49146  0.35883  1.0000
  C   C113      1.0  0.57478  0.51454  0.35876  1.0000
  C   C114      1.0  0.50309  0.48054  0.35620  1.0000
  C   C115      1.0  0.49446  0.45306  0.36321  1.0000
  C   C116      1.0  0.47890  0.39853  0.37947  1.0000
  C   C117      1.0  0.48024  0.41363  0.45521  1.0000
  C   C118      1.0  0.48800  0.44057  0.44733  1.0000
  C   C119      1.0  0.61654  0.56949  0.36416  1.0000
  C   C120      1.0  0.67073  0.58399  0.38132  1.0000
  C   C121      1.0  0.65418  0.57727  0.45717  1.0000
  C   C122      1.0  0.62740  0.57009  0.44877  1.0000
  C   C123      1.0  0.55259  0.64332  0.36305  1.0000
  C   C124      1.0  0.55911  0.65581  0.44717  1.0000
  C   C125      1.0  0.56698  0.68277  0.45512  1.0000
  C   C126      1.0  0.56834  0.69789  0.37944  1.0000
  C   C127      1.0  0.43051  0.52689  0.36438  1.0000
  C   C128      1.0  0.41964  0.52626  0.44899  1.0000
  C   C129      1.0  0.37637  0.51258  0.38146  1.0000
  C   C130      1.0  0.39288  0.51917  0.45735  1.0000
  H   H71       1.0  0.38559  0.51894  0.51966  1.0000
  H   H72       1.0  0.43108  0.53082  0.50509  1.0000
  H   H73       1.0  0.42335  0.47716  0.35981  1.0000
  H   H74       1.0  0.44659  0.45034  0.35876  1.0000
  H   H75       1.0  0.50308  0.52870  0.35191  1.0000
  H   H76       1.0  0.54397  0.56768  0.35137  1.0000
  H   H77       1.0  0.45435  0.58101  0.36129  1.0000
  H   H78       1.0  0.49894  0.62353  0.36132  1.0000
  H   H79       1.0  0.55790  0.64529  0.50332  1.0000
  H   H80       1.0  0.57117  0.69111  0.51734  1.0000
  H   H81       1.0  0.60045  0.64603  0.35866  1.0000
  H   H82       1.0  0.62369  0.61921  0.35973  1.0000
  H   H83       1.0  0.54810  0.47284  0.36144  1.0000
  H   H84       1.0  0.59269  0.51536  0.36113  1.0000
  H   H85       1.0  0.61592  0.56547  0.50485  1.0000
  H   H86       1.0  0.66145  0.57750  0.51948  1.0000
  H   H87       1.0  0.48924  0.45109  0.50352  1.0000
  H   H88       1.0  0.47614  0.40530  0.51744  1.0000
  C   C131      1.0  0.69713  0.59125  0.39169  1.0000
  C   C132      1.0  0.57492  0.72413  0.39034  1.0000
  C   C133      1.0  0.35001  0.50550  0.39176  1.0000
  C   C134      1.0  0.47250  0.37234  0.39030  1.0000
  H   H89       1.0  0.70612  0.59941  0.44897  1.0000
  H   H90       1.0  0.58497  0.73387  0.44438  1.0000
  H   H91       1.0  0.34093  0.49718  0.44875  1.0000
  H   H92       1.0  0.46251  0.36258  0.44442  1.0000
  C   C135      1.0  0.58810  0.03193  0.35738  1.0000
  C   C136      1.0  0.60273  0.05922  0.35676  1.0000
  C   C137      1.0  0.58517  0.06896  0.35483  1.0000
  N   N15       1.0  0.56064  0.04728  0.35260  1.0000
  C   C138      1.0  0.56126  0.02436  0.35502  1.0000
  C   C139      1.0  0.53995  0.99775  0.35657  1.0000
  C   C140      1.0  0.51270  0.99005  0.35571  1.0000
  N   N16       1.0  0.50200  0.00593  0.35355  1.0000
  C   C141      1.0  0.47526  0.99188  0.35506  1.0000
  C   C142      1.0  0.46836  0.96524  0.35800  1.0000
  C   C143      1.0  0.49144  0.96411  0.35812  1.0000
  C   C144      1.0  0.45745  0.00180  0.35562  1.0000
  C   C145      1.0  0.46504  0.02908  0.35457  1.0000
  N   N17       1.0  0.48957  0.05077  0.35240  1.0000
  C   C146      1.0  0.48895  0.07368  0.35499  1.0000
  C   C147      1.0  0.46211  0.06611  0.35736  1.0000
  C   C148      1.0  0.44748  0.03882  0.35672  1.0000
  C   C149      1.0  0.51025  0.10029  0.35663  1.0000
  C   C150      1.0  0.53751  0.10799  0.35595  1.0000
  N   N18       1.0  0.54821  0.09211  0.35388  1.0000
  C   C151      1.0  0.57494  0.10616  0.35553  1.0000
  C   C152      1.0  0.58184  0.13280  0.35844  1.0000
  C   C153      1.0  0.55876  0.13393  0.35839  1.0000
  C   C154      1.0  0.59276  0.09624  0.35606  1.0000
  C   C155      1.0  0.62023  0.11509  0.36314  1.0000
  C   C156      1.0  0.67474  0.15408  0.37956  1.0000
  C   C157      1.0  0.65963  0.14032  0.45526  1.0000
  C   C158      1.0  0.63269  0.12114  0.44730  1.0000
  C   C159      1.0  0.50381  0.12075  0.36413  1.0000
  C   C160      1.0  0.48931  0.16044  0.38121  1.0000
  C   C161      1.0  0.49607  0.15066  0.45706  1.0000
  C   C162      1.0  0.50326  0.13106  0.44870  1.0000
  C   C163      1.0  0.42997  0.98296  0.36279  1.0000
  C   C164      1.0  0.41751  0.97698  0.44697  1.0000
  C   C165      1.0  0.39054  0.95790  0.45497  1.0000
  C   C166      1.0  0.37539  0.94416  0.37931  1.0000
  C   C167      1.0  0.54639  0.97730  0.36415  1.0000
  C   C168      1.0  0.54697  0.96704  0.44876  1.0000
  C   C169      1.0  0.56069  0.93746  0.38127  1.0000
  C   C170      1.0  0.55406  0.94737  0.45714  1.0000
  H   H93       1.0  0.55427  0.94032  0.51944  1.0000
  H   H94       1.0  0.54239  0.97392  0.50485  1.0000
  H   H95       1.0  0.59611  0.01986  0.36012  1.0000
  H   H96       1.0  0.62295  0.06993  0.35915  1.0000
  H   H97       1.0  0.54459  0.04806  0.35130  1.0000
  H   H98       1.0  0.50561  0.04998  0.35078  1.0000
  H   H99       1.0  0.49227  0.94702  0.36051  1.0000
  H   H100      1.0  0.44974  0.94909  0.36047  1.0000
  H   H101      1.0  0.42806  0.98628  0.50309  1.0000
  H   H102      1.0  0.38223  0.95373  0.51723  1.0000
  H   H103      1.0  0.42726  0.02812  0.35901  1.0000
  H   H104      1.0  0.45409  0.07818  0.36029  1.0000
  H   H105      1.0  0.60046  0.14895  0.36084  1.0000
  H   H106      1.0  0.55794  0.15102  0.36063  1.0000
  H   H107      1.0  0.50790  0.12424  0.50479  1.0000
  H   H108      1.0  0.49586  0.15773  0.51934  1.0000
  H   H109      1.0  0.62216  0.11185  0.50346  1.0000
  H   H110      1.0  0.66793  0.14455  0.51752  1.0000
  C   C171      1.0  0.48204  0.17958  0.39154  1.0000
  C   C172      1.0  0.34916  0.92450  0.39026  1.0000
  C   C173      1.0  0.56778  0.91820  0.39159  1.0000
  C   C174      1.0  0.70092  0.17389  0.39049  1.0000
  H   H111      1.0  0.47388  0.18041  0.44883  1.0000
  H   H112      1.0  0.33944  0.92482  0.44437  1.0000
  H   H113      1.0  0.57608  0.91743  0.44860  1.0000
  H   H114      1.0  0.71069  0.17365  0.44454  1.0000
  C   C175      1.0  0.18968  0.50386  0.33775  1.0000
  C   C176      1.0  0.23795  0.50275  0.33367  1.0000
  C   C177      1.0  0.22716  0.50459  0.41654  1.0000
  C   C178      1.0  0.20314  0.50510  0.41744  1.0000
  H   H115      1.0  0.19596  0.50735  0.47700  1.0000
  C   C179      1.0  0.26263  0.50340  0.32889  1.0000
  C   C180      1.0  0.29169  0.48651  0.37580  1.0000
  C   C181      1.0  0.26664  0.48451  0.37476  1.0000
  H   H116      1.0  0.29403  0.47271  0.41037  1.0000
  H   H117      1.0  0.25142  0.46936  0.40893  1.0000
  N   N19       1.0  0.24110  0.50725  0.49675  1.0000
  O   O1        1.0  0.22748  0.48880  0.55025  1.0000
  O   O2        1.0  0.24793  0.52898  0.53451  1.0000
  N   N20       1.0  0.16832  0.50644  0.33579  1.0000
  C   C182      1.0  0.56943  0.75951  0.33759  1.0000
  C   C183      1.0  0.57054  0.80888  0.33352  1.0000
  C   C184      1.0  0.56870  0.79626  0.41638  1.0000
  C   C185      1.0  0.56819  0.77173  0.41728  1.0000
  H   H118      1.0  0.56593  0.76230  0.47684  1.0000
  C   C186      1.0  0.56989  0.83292  0.32873  1.0000
  C   C187      1.0  0.58677  0.87887  0.37564  1.0000
  C   C188      1.0  0.58877  0.85582  0.37461  1.0000
  H   H119      1.0  0.60057  0.89501  0.41022  1.0000
  H   H120      1.0  0.60393  0.85576  0.40879  1.0000
  N   N21       1.0  0.56604  0.80755  0.49659  1.0000
  O   O3        1.0  0.58449  0.81239  0.55009  1.0000
  O   O4        1.0  0.54431  0.79266  0.53435  1.0000
  N   N22       1.0  0.56685  0.73556  0.33563  1.0000
  C   C189      1.0  0.31380  0.88360  0.33765  1.0000
  C   C190      1.0  0.26443  0.83533  0.33374  1.0000
  C   C191      1.0  0.27707  0.84614  0.41656  1.0000
  C   C192      1.0  0.30159  0.87017  0.41740  1.0000
  H   H121      1.0  0.31102  0.87736  0.47693  1.0000
  C   C193      1.0  0.24039  0.81064  0.32902  1.0000
  C   C194      1.0  0.19443  0.78161  0.37595  1.0000
  C   C195      1.0  0.21750  0.80666  0.37490  1.0000
  H   H122      1.0  0.17829  0.77930  0.41051  1.0000
  H   H123      1.0  0.21757  0.82189  0.40904  1.0000
  N   N23       1.0  0.26579  0.83222  0.49681  1.0000
  O   O5        1.0  0.26095  0.84585  0.55028  1.0000
  O   O6        1.0  0.28068  0.82540  0.53459  1.0000
  N   N24       1.0  0.33773  0.90498  0.33563  1.0000
  C   C196      1.0  0.85839  0.59484  0.33773  1.0000
  C   C197      1.0  0.80983  0.59536  0.33361  1.0000
  C   C198      1.0  0.82068  0.59365  0.41648  1.0000
  C   C199      1.0  0.84485  0.59343  0.41742  1.0000
  H   H124      1.0  0.85208  0.59127  0.47697  1.0000
  C   C200      1.0  0.78500  0.59442  0.32879  1.0000
  C   C201      1.0  0.75557  0.61087  0.37569  1.0000
  C   C202      1.0  0.78074  0.61314  0.37473  1.0000
  H   H125      1.0  0.75305  0.62456  0.41030  1.0000
  H   H126      1.0  0.79586  0.62838  0.40898  1.0000
  N   N25       1.0  0.80667  0.59082  0.49667  1.0000
  O   O7        1.0  0.82013  0.60931  0.55024  1.0000
  O   O8        1.0  0.80004  0.56914  0.53437  1.0000
  N   N26       1.0  0.87990  0.59251  0.33580  1.0000
  C   C203      1.0  0.47845  0.33723  0.33759  1.0000
  C   C204      1.0  0.47793  0.28815  0.33348  1.0000
  C   C205      1.0  0.47964  0.30073  0.41634  1.0000
  C   C206      1.0  0.47985  0.32511  0.41728  1.0000
  H   H127      1.0  0.48201  0.33452  0.47683  1.0000
  C   C207      1.0  0.47887  0.26427  0.32865  1.0000
  C   C208      1.0  0.46242  0.21839  0.37552  1.0000
  C   C209      1.0  0.46015  0.24129  0.37457  1.0000
  H   H128      1.0  0.44873  0.20218  0.41012  1.0000
  H   H129      1.0  0.44491  0.24118  0.40881  1.0000
  N   N27       1.0  0.48247  0.28956  0.49653  1.0000
  O   O9        1.0  0.46397  0.28452  0.55009  1.0000
  O   O10       1.0  0.50415  0.30462  0.53423  1.0000
  N   N28       1.0  0.48077  0.36107  0.33566  1.0000
  C   C210      1.0  0.73607  0.21490  0.33772  1.0000
  C   C211      1.0  0.78516  0.26345  0.33361  1.0000
  C   C212      1.0  0.77258  0.25261  0.41647  1.0000
  C   C213      1.0  0.74819  0.22844  0.41740  1.0000
  H   H130      1.0  0.73878  0.22121  0.47696  1.0000
  C   C214      1.0  0.80904  0.28828  0.32878  1.0000
  C   C215      1.0  0.85491  0.31775  0.37576  1.0000
  C   C216      1.0  0.83202  0.29257  0.37476  1.0000
  H   H131      1.0  0.87111  0.32029  0.41041  1.0000
  H   H132      1.0  0.83214  0.27745  0.40902  1.0000
  N   N29       1.0  0.78375  0.26663  0.49665  1.0000
  O   O11       1.0  0.78877  0.25317  0.55025  1.0000
  O   O12       1.0  0.76869  0.27325  0.53431  1.0000
  N   N30       1.0  0.71222  0.19340  0.33579  1.0000
