data_image0
_chemical_formula_structural       C5H6C4H4C4H2NC3H2NC2HNC12H6C6H3C9H3C8H4C5H3C6H2C3HOHNC3HOHNCHC2H2C4H2C4HNHCOHC2
_chemical_formula_sum              "C84 H48 N6 O3"
_cell_length_a       45.3068
_cell_length_b       45.3124
_cell_length_c       14.3795
_cell_angle_alpha    90
_cell_angle_beta     90
_cell_angle_gamma    119.994

_space_group_name_H-M_alt    "P 1"
_space_group_IT_number       1

loop_
  _space_group_symop_operation_xyz
  'x, y, z'

loop_
  _atom_site_type_symbol
  _atom_site_label
  _atom_site_symmetry_multiplicity
  _atom_site_fract_x
  _atom_site_fract_y
  _atom_site_fract_z
  _atom_site_occupancy
  C   C1        1.0  0.42605  0.59287  0.35231  1.0000
  C   C2        1.0  0.46081  0.84405  0.35051  1.0000
  C   C3        1.0  0.47483  0.87953  0.36121  1.0000
  C   C4        1.0  0.20990  0.62758  0.35049  1.0000
  C   C5        1.0  0.17442  0.60611  0.36120  1.0000
  H   H1        1.0  0.43922  0.55475  0.33846  1.0000
  H   H2        1.0  0.47480  0.83518  0.31693  1.0000
  H   H3        1.0  0.49869  0.89536  0.33522  1.0000
  H   H4        1.0  0.21876  0.65044  0.31692  1.0000
  H   H5        1.0  0.15858  0.61414  0.33523  1.0000
  H   H6        1.0  0.40286  0.57858  0.32060  1.0000
  C   C6        1.0  0.44756  0.57889  0.36273  1.0000
  C   C7        1.0  0.64047  0.45169  0.39086  1.0000
  C   C8        1.0  0.60195  0.19961  0.38760  1.0000
  C   C9        1.0  0.58805  0.16406  0.37961  1.0000
  H   H7        1.0  0.62903  0.49125  0.39222  1.0000
  H   H8        1.0  0.58589  0.20899  0.40002  1.0000
  H   H9        1.0  0.56222  0.14868  0.38601  1.0000
  H   H10       1.0  0.66568  0.46760  0.40638  1.0000
  C   C10       1.0  0.61881  0.46558  0.38273  1.0000
  C   C11       1.0  0.51516  0.54075  0.38335  1.0000
  C   C12       1.0  0.50744  0.51526  0.31601  1.0000
  C   C13       1.0  0.52489  0.49683  0.31424  1.0000
  H   H11       1.0  0.51896  0.47903  0.26318  1.0000
  H   H12       1.0  0.48916  0.51012  0.26676  1.0000
  N   N1        1.0  0.49743  0.55706  0.38036  1.0000
  C   C14       1.0  0.51313  0.98524  0.38369  1.0000
  C   C15       1.0  0.53837  0.00305  0.31579  1.0000
  C   C16       1.0  0.55676  0.03893  0.31408  1.0000
  H   H13       1.0  0.57437  0.05082  0.26259  1.0000
  H   H14       1.0  0.54335  0.98994  0.26607  1.0000
  N   N2        1.0  0.49683  0.95120  0.38061  1.0000
  C   C17       1.0  0.06870  0.53867  0.38367  1.0000
  C   C18       1.0  0.05089  0.54612  0.31581  1.0000
  H   H15       1.0  0.06401  0.56425  0.26618  1.0000
  N   N3        1.0  0.10275  0.55643  0.38061  1.0000
  C   C19       1.0  0.42810  0.82117  0.38588  1.0000
  C   C20       1.0  0.43630  0.62595  0.38547  1.0000
  C   C21       1.0  0.23279  0.61776  0.38588  1.0000
  C   C22       1.0  0.47983  0.59752  0.40650  1.0000
  C   C23       1.0  0.48970  0.63068  0.43934  1.0000
  C   C24       1.0  0.46836  0.64475  0.42902  1.0000
  C   C25       1.0  0.45659  0.89311  0.40745  1.0000
  C   C26       1.0  0.42380  0.86978  0.44251  1.0000
  C   C27       1.0  0.40970  0.83438  0.43195  1.0000
  C   C28       1.0  0.16085  0.57430  0.40746  1.0000
  C   C29       1.0  0.18420  0.56486  0.44252  1.0000
  C   C30       1.0  0.21960  0.58616  0.43195  1.0000
  H   H16       1.0  0.51275  0.64513  0.47156  1.0000
  H   H17       1.0  0.47654  0.66882  0.45400  1.0000
  H   H18       1.0  0.38589  0.81846  0.45855  1.0000
  H   H19       1.0  0.40964  0.87834  0.47654  1.0000
  H   H20       1.0  0.17564  0.54214  0.47657  1.0000
  H   H21       1.0  0.23553  0.57829  0.45856  1.0000
  C   C31       1.0  0.32957  0.67036  0.36976  1.0000
  C   C32       1.0  0.34787  0.70637  0.36986  1.0000
  C   C33       1.0  0.38391  0.72440  0.36978  1.0000
  C   C34       1.0  0.40164  0.70611  0.36991  1.0000
  C   C35       1.0  0.38363  0.67007  0.36983  1.0000
  C   C36       1.0  0.34761  0.65235  0.36992  1.0000
  H   H22       1.0  0.42782  0.71912  0.37091  1.0000
  H   H23       1.0  0.33485  0.71954  0.37086  1.0000
  H   H24       1.0  0.33444  0.62616  0.37091  1.0000
  C   C37       1.0  0.26580  0.63731  0.37719  1.0000
  C   C38       1.0  0.29622  0.65368  0.37234  1.0000
  C   C39       1.0  0.41671  0.63938  0.37707  1.0000
  C   C40       1.0  0.40031  0.65340  0.37237  1.0000
  C   C41       1.0  0.40059  0.75775  0.37235  1.0000
  C   C42       1.0  0.41463  0.78817  0.37720  1.0000
  C   C43       1.0  0.12596  0.55250  0.42084  1.0000
  C   C44       1.0  0.46969  0.92800  0.42080  1.0000
  C   C45       1.0  0.50167  0.58446  0.41963  1.0000
  H   H25       1.0  0.52194  0.59741  0.46014  1.0000
  H   H26       1.0  0.45697  0.93529  0.46236  1.0000
  H   H27       1.0  0.11867  0.53251  0.46242  1.0000
  C   C46       1.0  0.63736  0.22186  0.37760  1.0000
  C   C47       1.0  0.62764  0.41650  0.37689  1.0000
  C   C48       1.0  0.58383  0.44474  0.36034  1.0000
  C   C49       1.0  0.57134  0.40947  0.34677  1.0000
  C   C50       1.0  0.59283  0.39549  0.35500  1.0000
  C   C51       1.0  0.60911  0.14983  0.36128  1.0000
  C   C52       1.0  0.64459  0.17249  0.35166  1.0000
  C   C53       1.0  0.65858  0.20796  0.35983  1.0000
  H   H28       1.0  0.54625  0.39343  0.33036  1.0000
  H   H29       1.0  0.58274  0.36985  0.34419  1.0000
  H   H30       1.0  0.68438  0.22343  0.35186  1.0000
  H   H31       1.0  0.66078  0.16336  0.33818  1.0000
  C   C54       1.0  0.71709  0.33700  0.38745  1.0000
  C   C55       1.0  0.68105  0.31875  0.38750  1.0000
  C   C56       1.0  0.66309  0.33681  0.38739  1.0000
  C   C57       1.0  0.68087  0.37285  0.38743  1.0000
  C   C58       1.0  0.71689  0.39080  0.38739  1.0000
  H   H32       1.0  0.63690  0.32363  0.38676  1.0000
  H   H33       1.0  0.73027  0.32399  0.38687  1.0000
  H   H34       1.0  0.72989  0.41698  0.38674  1.0000
  C   C59       1.0  0.64740  0.40319  0.38260  1.0000
  C   C60       1.0  0.66398  0.38932  0.38575  1.0000
  C   C61       1.0  0.66457  0.28539  0.38593  1.0000
  C   C62       1.0  0.65070  0.25494  0.38297  1.0000
  C   C63       1.0  0.59620  0.11493  0.35005  1.0000
  C   C64       1.0  0.56181  0.45765  0.34924  1.0000
  H   H35       1.0  0.53981  0.44332  0.31649  1.0000
  H   H36       1.0  0.61061  0.10726  0.31774  1.0000
  C   C65       1.0  0.55039  0.50302  0.38080  1.0000
  C   C66       1.0  0.55814  0.52846  0.44873  1.0000
  C   C67       1.0  0.54076  0.54705  0.44968  1.0000
  H   H37       1.0  0.54683  0.56505  0.50016  1.0000
  O   O1        1.0  0.58289  0.53604  0.51334  1.0000
  H   H38       1.0  0.57171  0.52045  0.56581  1.0000
  N   N4        1.0  0.56798  0.48656  0.38253  1.0000
  C   C68       1.0  0.55076  0.05818  0.38124  1.0000
  C   C69       1.0  0.52556  0.04045  0.44971  1.0000
  C   C70       1.0  0.50703  0.00450  0.45064  1.0000
  H   H39       1.0  0.48920  0.99254  0.50151  1.0000
  O   O2        1.0  0.51818  0.05759  0.51494  1.0000
  H   H40       1.0  0.53396  0.06199  0.56695  1.0000
  N   N5        1.0  0.56720  0.09222  0.38302  1.0000
  C   C71       1.0  0.04944  0.51328  0.45054  1.0000
  H   H41       1.0  0.06140  0.50738  0.50136  1.0000
  C   C72       1.0  0.85432  0.41312  0.38786  1.0000
  C   C73       1.0  0.88987  0.43477  0.37984  1.0000
  H   H42       1.0  0.84496  0.38770  0.40055  1.0000
  H   H43       1.0  0.90527  0.42436  0.38658  1.0000
  C   C74       1.0  0.83204  0.42624  0.37750  1.0000
  C   C75       1.0  0.90408  0.47003  0.36120  1.0000
  C   C76       1.0  0.88140  0.48281  0.35121  1.0000
  C   C77       1.0  0.84592  0.46132  0.35936  1.0000
  H   H44       1.0  0.89050  0.50811  0.33751  1.0000
  H   H45       1.0  0.83043  0.47162  0.35115  1.0000
  C   C78       1.0  0.73516  0.37302  0.38749  1.0000
  C   C79       1.0  0.79896  0.40648  0.38291  1.0000
  C   C80       1.0  0.76852  0.38991  0.38591  1.0000
  C   C81       1.0  0.93899  0.49204  0.35004  1.0000
  H   H46       1.0  0.94666  0.51412  0.31773  1.0000
  N   N6        1.0  0.96171  0.48576  0.38296  1.0000
  H   H47       1.0  0.00311  0.53438  0.26269  1.0000
  C   C82       1.0  0.99575  0.50336  0.38119  1.0000
  O   O3        1.0  0.99635  0.47132  0.51474  1.0000
  H   H48       1.0  0.99194  0.48266  0.56681  1.0000
  C   C83       1.0  0.01501  0.52864  0.31410  1.0000
  C   C84       1.0  0.01348  0.49586  0.44959  1.0000
