data_image0
_chemical_formula_structural       C4H3CH3NC4H3CH3NC3H2NC2H3CHCH2C3H3NC3H3NCNCNCNC3H3CNCNCNC3H3CNCNCNC3H3CNCNCNC3H3C3H2NC3H2NC4H3CH3NC2HNC2HNCHCH3C4H3CH3NHNC4H3CH3NHC3H2NC3H2NC3H2NC3H2NC4H3CH3NC3H2NC2H2C4H3CH3NCNCNCNC3H3CNCNCNC3H3CNCNCNC3H3CNCNCNC3H3CNCNCNC3H3CNCNCNC3H3C3H2NHC3H2NHNC4H3CH3NC4H3CH3NC4H3CH3NC4H3CH3NC3H2NCHC2HNC3H2NC4H2CH3C4H3CH2NC3H2NC2H3NCH3CNCNCNC3H3CNCNCNC3H3C3HNC3HC4H3CH3NHCHNC4
_chemical_formula_sum              "C216 H180 N72"
_cell_length_a       60.7242
_cell_length_b       60.7242
_cell_length_c       14.5258
_cell_angle_alpha    90
_cell_angle_beta     90
_cell_angle_gamma    120

_space_group_name_H-M_alt    "P 1"
_space_group_IT_number       1

loop_
  _space_group_symop_operation_xyz
  'x, y, z'

loop_
  _atom_site_type_symbol
  _atom_site_label
  _atom_site_symmetry_multiplicity
  _atom_site_fract_x
  _atom_site_fract_y
  _atom_site_fract_z
  _atom_site_occupancy
  C   C1        1.0  0.27853  0.47626  0.35805  1.0000
  C   C2        1.0  0.26133  0.46595  0.28192  1.0000
  C   C3        1.0  0.23749  0.46592  0.28191  1.0000
  C   C4        1.0  0.26875  0.45625  0.19980  1.0000
  H   H1        1.0  0.28721  0.45759  0.20555  1.0000
  H   H2        1.0  0.26956  0.46709  0.13872  1.0000
  H   H3        1.0  0.25478  0.43623  0.18862  1.0000
  C   C5        1.0  0.22039  0.45621  0.19974  1.0000
  H   H4        1.0  0.20325  0.45751  0.20548  1.0000
  H   H5        1.0  0.21438  0.43621  0.18850  1.0000
  H   H6        1.0  0.23043  0.46708  0.13870  1.0000
  N   N1        1.0  0.30271  0.48037  0.36063  1.0000
  C   C6        1.0  0.23017  0.78003  0.35838  1.0000
  C   C7        1.0  0.23708  0.79723  0.28224  1.0000
  C   C8        1.0  0.26093  0.82103  0.28217  1.0000
  C   C9        1.0  0.21994  0.78985  0.20020  1.0000
  H   H7        1.0  0.20278  0.77144  0.20608  1.0000
  H   H8        1.0  0.22993  0.78897  0.13909  1.0000
  H   H9        1.0  0.21397  0.80388  0.18900  1.0000
  C   C10       1.0  0.26835  0.83813  0.19999  1.0000
  H   H10       1.0  0.28682  0.85522  0.20566  1.0000
  H   H11       1.0  0.25440  0.84421  0.18886  1.0000
  H   H12       1.0  0.26911  0.82806  0.13893  1.0000
  N   N2        1.0  0.21010  0.75585  0.36090  1.0000
  C   C11       1.0  0.15945  0.56906  0.39681  1.0000
  C   C12       1.0  0.17349  0.58805  0.33080  1.0000
  C   C13       1.0  0.17347  0.61118  0.33077  1.0000
  H   H13       1.0  0.18282  0.62395  0.27906  1.0000
  H   H14       1.0  0.18281  0.58462  0.27904  1.0000
  N   N3        1.0  0.15688  0.54590  0.38888  1.0000
  C   C14       1.0  0.04412  0.40995  0.27943  1.0000
  C   C15       1.0  0.05834  0.41397  0.19116  1.0000
  H   H15       1.0  0.07888  0.42366  0.19916  1.0000
  H   H16       1.0  0.05403  0.42535  0.14414  1.0000
  H   H17       1.0  0.05281  0.39570  0.15900  1.0000
  C   C16       1.0  0.39850  0.01426  0.27932  1.0000
  H   H18       1.0  0.39838  0.05061  0.15835  1.0000
  C   C17       1.0  0.38846  0.00003  0.19097  1.0000
  H   H19       1.0  0.37764  0.97949  0.19896  1.0000
  H   H20       1.0  0.37573  0.00551  0.15842  1.0000
  C   C18       1.0  0.05782  0.66498  0.36246  1.0000
  C   C19       1.0  0.04399  0.65928  0.27776  1.0000
  C   C20       1.0  0.05822  0.66802  0.18883  1.0000
  H   H21       1.0  0.07878  0.67871  0.19664  1.0000
  H   H22       1.0  0.05294  0.68046  0.15283  1.0000
  H   H23       1.0  0.05367  0.65161  0.14534  1.0000
  N   N4        1.0  0.08365  0.67813  0.36967  1.0000
  C   C21       1.0  0.39410  0.41935  0.36362  1.0000
  C   C22       1.0  0.39862  0.41003  0.27937  1.0000
  C   C23       1.0  0.38858  0.41422  0.19102  1.0000
  H   H24       1.0  0.37795  0.42415  0.19893  1.0000
  H   H25       1.0  0.37566  0.39600  0.15886  1.0000
  H   H26       1.0  0.39807  0.37331  0.15895  1.0000
  N   N5        1.0  0.38103  0.43210  0.37146  1.0000
  C   C24       1.0  0.16883  0.47525  0.36334  1.0000
  N   N6        1.0  0.14281  0.45951  0.35801  1.0000
  C   C25       1.0  0.12620  0.46869  0.35710  1.0000
  N   N7        1.0  0.13673  0.49440  0.36059  1.0000
  C   C26       1.0  0.16215  0.51085  0.36625  1.0000
  N   N8        1.0  0.17783  0.50083  0.36683  1.0000
  C   C27       1.0  0.17150  0.53691  0.36831  1.0000
  C   C28       1.0  0.18592  0.46593  0.36283  1.0000
  C   C29       1.0  0.09966  0.45501  0.34541  1.0000
  H   H27       1.0  0.09205  0.46459  0.31664  1.0000
  H   H28       1.0  0.17869  0.44721  0.36302  1.0000
  H   H29       1.0  0.18980  0.54874  0.35558  1.0000
  C   C30       1.0  0.33901  0.88958  0.36351  1.0000
  N   N9        1.0  0.34932  0.91560  0.35840  1.0000
  C   C31       1.0  0.37511  0.93219  0.35750  1.0000
  N   N10       1.0  0.39027  0.92163  0.36084  1.0000
  C   C32       1.0  0.38128  0.89621  0.36626  1.0000
  N   N11       1.0  0.35557  0.88055  0.36681  1.0000
  C   C33       1.0  0.39798  0.88684  0.36817  1.0000
  C   C34       1.0  0.31260  0.87252  0.36302  1.0000
  C   C35       1.0  0.38802  0.95876  0.34625  1.0000
  H   H30       1.0  0.40531  0.96641  0.31839  1.0000
  H   H31       1.0  0.30112  0.87977  0.36331  1.0000
  H   H32       1.0  0.39149  0.86855  0.35522  1.0000
  C   C36       1.0  0.33935  0.47540  0.36350  1.0000
  N   N12       1.0  0.34967  0.45969  0.35860  1.0000
  C   C37       1.0  0.37547  0.46891  0.35775  1.0000
  N   N13       1.0  0.39061  0.49463  0.36097  1.0000
  C   C38       1.0  0.38161  0.51105  0.36618  1.0000
  N   N14       1.0  0.35590  0.50099  0.36667  1.0000
  C   C39       1.0  0.39828  0.53712  0.36799  1.0000
  C   C40       1.0  0.31294  0.46604  0.36298  1.0000
  C   C41       1.0  0.38839  0.45525  0.34688  1.0000
  H   H33       1.0  0.40579  0.46494  0.31987  1.0000
  H   H34       1.0  0.30146  0.44731  0.36329  1.0000
  H   H35       1.0  0.39177  0.54891  0.35491  1.0000
  C   C42       1.0  0.16849  0.71919  0.36397  1.0000
  N   N15       1.0  0.14244  0.70884  0.36019  1.0000
  C   C43       1.0  0.12588  0.68304  0.35950  1.0000
  N   N16       1.0  0.13652  0.66794  0.36215  1.0000
  C   C44       1.0  0.16196  0.67697  0.36620  1.0000
  N   N17       1.0  0.17758  0.70267  0.36640  1.0000
  C   C45       1.0  0.17137  0.66030  0.36751  1.0000
  C   C46       1.0  0.18554  0.74560  0.36346  1.0000
  C   C47       1.0  0.09922  0.67003  0.35093  1.0000
  H   H36       1.0  0.09125  0.65204  0.32954  1.0000
  H   H37       1.0  0.17828  0.75709  0.36407  1.0000
  H   H38       1.0  0.18962  0.66679  0.35355  1.0000
  C   C48       1.0  0.23056  0.47618  0.35805  1.0000
  C   C49       1.0  0.24829  0.48698  0.43057  1.0000
  C   C50       1.0  0.27153  0.48701  0.43059  1.0000
  H   H39       1.0  0.28382  0.49566  0.48426  1.0000
  H   H40       1.0  0.24462  0.49561  0.48424  1.0000
  N   N18       1.0  0.21048  0.48028  0.36061  1.0000
  C   C51       1.0  0.27814  0.82792  0.35825  1.0000
  C   C52       1.0  0.27117  0.81017  0.43075  1.0000
  C   C53       1.0  0.24794  0.78696  0.43079  1.0000
  H   H41       1.0  0.24429  0.77464  0.48438  1.0000
  H   H42       1.0  0.28350  0.81378  0.48430  1.0000
  N   N19       1.0  0.30235  0.84796  0.36076  1.0000
  C   C54       1.0  0.15945  0.61615  0.39681  1.0000
  C   C55       1.0  0.14539  0.59740  0.46504  1.0000
  C   C56       1.0  0.14538  0.57374  0.46503  1.0000
  C   C57       1.0  0.13054  0.60233  0.53639  1.0000
  H   H43       1.0  0.13207  0.62094  0.53107  1.0000
  H   H44       1.0  0.13725  0.60126  0.60501  1.0000
  H   H45       1.0  0.11040  0.58816  0.53077  1.0000
  C   C58       1.0  0.13052  0.55395  0.53633  1.0000
  H   H46       1.0  0.13205  0.53687  0.53096  1.0000
  H   H47       1.0  0.11038  0.54798  0.53068  1.0000
  H   H48       1.0  0.13723  0.56171  0.60497  1.0000
  N   N20       1.0  0.15689  0.63674  0.38902  1.0000
  C   C59       1.0  0.05795  0.41929  0.36371  1.0000
  C   C60       1.0  0.04378  0.41408  0.44588  1.0000
  H   H49       1.0  0.05305  0.42021  0.50756  1.0000
  N   N21       1.0  0.08377  0.43207  0.37180  1.0000
  C   C61       1.0  0.39388  0.00043  0.36366  1.0000
  C   C62       1.0  0.40271  0.01460  0.44589  1.0000
  H   H50       1.0  0.39948  0.00532  0.50760  1.0000
  N   N22       1.0  0.38081  0.97460  0.37166  1.0000
  C   C63       1.0  0.04367  0.65720  0.44502  1.0000
  H   H51       1.0  0.05297  0.66121  0.50690  1.0000
  C   C64       1.0  0.40302  0.41411  0.44584  1.0000
  H   H52       1.0  0.39986  0.42024  0.50750  1.0000
  H   H53       1.0  0.40422  0.00438  0.14430  1.0000
  H   H54       1.0  0.40432  0.42544  0.14404  1.0000
  C   C65       1.0  0.58259  0.82829  0.35856  1.0000
  C   C66       1.0  0.59296  0.82144  0.28253  1.0000
  C   C67       1.0  0.59300  0.79763  0.28253  1.0000
  C   C68       1.0  0.60271  0.83858  0.20048  1.0000
  H   H55       1.0  0.60135  0.85569  0.20623  1.0000
  H   H56       1.0  0.59189  0.82856  0.13932  1.0000
  H   H57       1.0  0.62273  0.84464  0.18944  1.0000
  C   C69       1.0  0.60278  0.79027  0.20046  1.0000
  H   H58       1.0  0.60149  0.77184  0.20626  1.0000
  H   H59       1.0  0.62278  0.80429  0.18937  1.0000
  H   H60       1.0  0.59193  0.78943  0.13933  1.0000
  N   N23       1.0  0.57846  0.84835  0.36105  1.0000
  H   H61       1.0  0.77387  0.59925  0.20641  1.0000
  N   N24       1.0  0.75822  0.57622  0.36100  1.0000
  C   C70       1.0  0.47849  0.22809  0.35807  1.0000
  C   C71       1.0  0.46819  0.23499  0.28193  1.0000
  C   C72       1.0  0.46819  0.25882  0.28191  1.0000
  C   C73       1.0  0.45847  0.21787  0.19981  1.0000
  H   H62       1.0  0.45980  0.20074  0.20558  1.0000
  H   H63       1.0  0.46933  0.22790  0.13873  1.0000
  H   H64       1.0  0.43847  0.21184  0.18862  1.0000
  C   C74       1.0  0.45850  0.26622  0.19974  1.0000
  H   H65       1.0  0.45983  0.28467  0.20547  1.0000
  H   H66       1.0  0.43849  0.25224  0.18849  1.0000
  H   H67       1.0  0.46937  0.26704  0.13870  1.0000
  N   N25       1.0  0.48256  0.20799  0.36066  1.0000
  H   H68       1.0  0.77398  0.20070  0.20612  1.0000
  C   C75       1.0  0.48952  0.61646  0.39664  1.0000
  C   C76       1.0  0.47045  0.61156  0.33108  1.0000
  C   C77       1.0  0.44733  0.58838  0.33105  1.0000
  H   H69       1.0  0.43447  0.58503  0.27975  1.0000
  H   H70       1.0  0.47378  0.62440  0.27977  1.0000
  N   N26       1.0  0.51265  0.63709  0.38891  1.0000
  C   C78       1.0  0.44219  0.89889  0.39670  1.0000
  C   C79       1.0  0.44713  0.88482  0.33082  1.0000
  C   C80       1.0  0.47028  0.88483  0.33082  1.0000
  H   H71       1.0  0.47366  0.87540  0.27933  1.0000
  H   H72       1.0  0.43432  0.87539  0.27932  1.0000
  N   N27       1.0  0.42159  0.90144  0.38883  1.0000
  C   C81       1.0  0.57142  0.44002  0.39678  1.0000
  C   C82       1.0  0.59041  0.44497  0.33083  1.0000
  C   C83       1.0  0.61356  0.46812  0.33081  1.0000
  H   H73       1.0  0.62633  0.47153  0.27913  1.0000
  H   H74       1.0  0.58699  0.43221  0.27910  1.0000
  N   N28       1.0  0.54826  0.41943  0.38885  1.0000
  C   C84       1.0  0.61861  0.15724  0.39661  1.0000
  C   C85       1.0  0.61369  0.17139  0.33100  1.0000
  C   C86       1.0  0.59052  0.17134  0.33098  1.0000
  H   H75       1.0  0.58716  0.18082  0.27965  1.0000
  H   H76       1.0  0.62653  0.18088  0.27963  1.0000
  N   N29       1.0  0.63924  0.15474  0.38887  1.0000
  C   C87       1.0  0.66736  0.63761  0.36247  1.0000
  C   C88       1.0  0.66155  0.64563  0.27773  1.0000
  C   C89       1.0  0.64786  0.65940  0.27776  1.0000
  C   C90       1.0  0.67019  0.64003  0.18878  1.0000
  H   H77       1.0  0.68090  0.63018  0.19659  1.0000
  H   H78       1.0  0.68258  0.65771  0.15243  1.0000
  H   H79       1.0  0.65373  0.62811  0.14560  1.0000
  C   C91       1.0  0.64235  0.66812  0.18882  1.0000
  H   H80       1.0  0.63264  0.67897  0.19667  1.0000
  H   H81       1.0  0.63034  0.65170  0.14564  1.0000
  H   H82       1.0  0.66006  0.68042  0.15247  1.0000
  N   N30       1.0  0.68052  0.62493  0.36964  1.0000
  C   C92       1.0  0.42148  0.05556  0.36360  1.0000
  C   C93       1.0  0.41227  0.04172  0.27929  1.0000
  C   C94       1.0  0.41656  0.05595  0.19088  1.0000
  H   H83       1.0  0.42645  0.07650  0.19878  1.0000
  H   H84       1.0  0.42787  0.05145  0.14423  1.0000
  N   N31       1.0  0.43423  0.08138  0.37142  1.0000
  C   C95       1.0  0.41231  0.39625  0.27940  1.0000
  C   C96       1.0  0.41634  0.38606  0.19113  1.0000
  H   H85       1.0  0.42602  0.37520  0.19914  1.0000
  H   H86       1.0  0.42771  0.40175  0.14412  1.0000
  C   C97       1.0  0.63980  0.00058  0.36242  1.0000
  C   C98       1.0  0.64782  0.01441  0.27769  1.0000
  C   C99       1.0  0.66159  0.04187  0.27771  1.0000
  C   C100      1.0  0.64221  0.00017  0.18873  1.0000
  H   H87       1.0  0.63236  0.97961  0.19655  1.0000
  H   H88       1.0  0.65989  0.00545  0.15239  1.0000
  H   H89       1.0  0.63031  0.00472  0.14555  1.0000
  C   C101      1.0  0.67032  0.05610  0.18878  1.0000
  H   H90       1.0  0.68117  0.07665  0.19662  1.0000
  H   H91       1.0  0.65390  0.05169  0.14559  1.0000
  H   H92       1.0  0.68261  0.05068  0.15242  1.0000
  N   N32       1.0  0.62713  0.97475  0.36958  1.0000
  C   C102      1.0  0.58349  0.71956  0.36403  1.0000
  N   N33       1.0  0.59918  0.70920  0.36014  1.0000
  C   C103      1.0  0.58994  0.68340  0.35940  1.0000
  N   N34       1.0  0.56420  0.66830  0.36210  1.0000
  C   C104      1.0  0.54779  0.67733  0.36627  1.0000
  N   N35       1.0  0.55788  0.70304  0.36653  1.0000
  C   C105      1.0  0.52172  0.66066  0.36760  1.0000
  C   C106      1.0  0.59287  0.74597  0.36357  1.0000
  C   C107      1.0  0.60357  0.67037  0.35060  1.0000
  H   H93       1.0  0.59355  0.65243  0.32872  1.0000
  H   H94       1.0  0.61161  0.75744  0.36419  1.0000
  H   H95       1.0  0.50995  0.66714  0.35376  1.0000
  C   C108      1.0  0.47760  0.33683  0.36335  1.0000
  N   N36       1.0  0.46186  0.34712  0.35803  1.0000
  C   C109      1.0  0.47105  0.37291  0.35712  1.0000
  N   N37       1.0  0.49676  0.38809  0.36060  1.0000
  C   C110      1.0  0.51320  0.37911  0.36623  1.0000
  N   N38       1.0  0.50318  0.35341  0.36681  1.0000
  C   C111      1.0  0.53927  0.39582  0.36827  1.0000
  C   C112      1.0  0.46826  0.31043  0.36284  1.0000
  C   C113      1.0  0.45737  0.38578  0.34549  1.0000
  H   H96       1.0  0.46695  0.40298  0.31683  1.0000
  H   H97       1.0  0.44953  0.29893  0.36306  1.0000
  H   H98       1.0  0.55109  0.38934  0.35552  1.0000
  C   C114      1.0  0.72171  0.16640  0.36393  1.0000
  N   N39       1.0  0.71137  0.14035  0.36004  1.0000
  C   C115      1.0  0.68557  0.12378  0.35931  1.0000
  N   N40       1.0  0.67046  0.13441  0.36203  1.0000
  C   C116      1.0  0.67948  0.15985  0.36619  1.0000
  N   N41       1.0  0.70519  0.17548  0.36643  1.0000
  C   C117      1.0  0.66281  0.16925  0.36753  1.0000
  C   C118      1.0  0.74812  0.18345  0.36345  1.0000
  C   C119      1.0  0.67255  0.09713  0.35052  1.0000
  H   H99       1.0  0.65461  0.08919  0.32860  1.0000
  H   H100      1.0  0.75961  0.17620  0.36405  1.0000
  H   H101      1.0  0.66928  0.18750  0.35369  1.0000
  C   C120      1.0  0.47756  0.16637  0.36353  1.0000
  N   N42       1.0  0.46185  0.14034  0.35869  1.0000
  C   C121      1.0  0.47106  0.12375  0.35786  1.0000
  N   N43       1.0  0.49678  0.13433  0.36106  1.0000
  C   C122      1.0  0.51321  0.15976  0.36621  1.0000
  N   N44       1.0  0.50315  0.17541  0.36668  1.0000
  C   C123      1.0  0.53928  0.16915  0.36801  1.0000
  C   C124      1.0  0.46822  0.18343  0.36299  1.0000
  C   C125      1.0  0.45740  0.09717  0.34708  1.0000
  H   H102      1.0  0.46711  0.08945  0.32029  1.0000
  H   H103      1.0  0.44949  0.17620  0.36328  1.0000
  H   H104      1.0  0.55107  0.18744  0.35487  1.0000
  C   C126      1.0  0.72155  0.58114  0.36411  1.0000
  N   N45       1.0  0.71120  0.59683  0.36043  1.0000
  C   C127      1.0  0.68539  0.58759  0.35975  1.0000
  N   N46       1.0  0.67030  0.56185  0.36233  1.0000
  C   C128      1.0  0.67933  0.54544  0.36628  1.0000
  N   N47       1.0  0.70504  0.55553  0.36647  1.0000
  C   C129      1.0  0.66267  0.51936  0.36753  1.0000
  C   C130      1.0  0.74797  0.59053  0.36364  1.0000
  C   C131      1.0  0.67237  0.60123  0.35132  1.0000
  H   H105      1.0  0.65434  0.59119  0.33032  1.0000
  H   H106      1.0  0.75944  0.60926  0.36435  1.0000
  H   H107      1.0  0.66916  0.50760  0.35352  1.0000
  C   C132      1.0  0.58335  0.88993  0.36411  1.0000
  N   N48       1.0  0.59903  0.91598  0.36046  1.0000
  C   C133      1.0  0.58978  0.93253  0.35977  1.0000
  N   N49       1.0  0.56404  0.92187  0.36233  1.0000
  C   C134      1.0  0.54763  0.89642  0.36625  1.0000
  N   N50       1.0  0.55774  0.88082  0.36645  1.0000
  C   C135      1.0  0.52155  0.88700  0.36746  1.0000
  C   C136      1.0  0.59275  0.87291  0.36364  1.0000
  C   C137      1.0  0.60342  0.95920  0.35140  1.0000
  H   H108      1.0  0.59336  0.96718  0.33052  1.0000
  H   H109      1.0  0.61149  0.88019  0.36430  1.0000
  H   H110      1.0  0.50981  0.86876  0.35343  1.0000
  C   C138      1.0  0.58270  0.78042  0.35859  1.0000
  C   C139      1.0  0.57186  0.78734  0.43105  1.0000
  C   C140      1.0  0.57183  0.81054  0.43105  1.0000
  H   H111      1.0  0.56311  0.81415  0.48459  1.0000
  H   H112      1.0  0.56317  0.77501  0.48459  1.0000
  N   N51       1.0  0.57856  0.75623  0.36105  1.0000
  H   H113      1.0  0.77702  0.56080  0.48448  1.0000
  C   C141      1.0  0.47847  0.27601  0.35805  1.0000
  C   C142      1.0  0.48925  0.26905  0.43059  1.0000
  C   C143      1.0  0.48924  0.24583  0.43061  1.0000
  H   H114      1.0  0.49788  0.24217  0.48429  1.0000
  H   H115      1.0  0.49789  0.28135  0.48426  1.0000
  N   N52       1.0  0.48260  0.30020  0.36060  1.0000
  H   H116      1.0  0.77712  0.24218  0.48444  1.0000
  N   N53       1.0  0.75835  0.20801  0.36091  1.0000
  C   C144      1.0  0.44246  0.56933  0.39665  1.0000
  C   C145      1.0  0.46132  0.57395  0.46437  1.0000
  C   C146      1.0  0.48495  0.59762  0.46438  1.0000
  C   C147      1.0  0.45650  0.55408  0.53521  1.0000
  H   H117      1.0  0.43790  0.53699  0.52994  1.0000
  H   H118      1.0  0.45764  0.56176  0.60407  1.0000
  H   H119      1.0  0.47068  0.54814  0.52892  1.0000
  C   C148      1.0  0.50484  0.60248  0.53523  1.0000
  H   H120      1.0  0.52190  0.62111  0.52995  1.0000
  H   H121      1.0  0.51082  0.58834  0.52893  1.0000
  H   H122      1.0  0.49714  0.60132  0.60408  1.0000
  N   N54       1.0  0.42188  0.54617  0.38878  1.0000
  C   C149      1.0  0.48929  0.89890  0.39672  1.0000
  C   C150      1.0  0.48463  0.91304  0.46473  1.0000
  C   C151      1.0  0.46098  0.91304  0.46472  1.0000
  C   C152      1.0  0.50445  0.92797  0.53590  1.0000
  H   H123      1.0  0.52153  0.92643  0.53062  1.0000
  H   H124      1.0  0.49670  0.92132  0.60461  1.0000
  H   H125      1.0  0.51042  0.94810  0.53001  1.0000
  C   C153      1.0  0.45608  0.92797  0.53584  1.0000
  H   H126      1.0  0.43747  0.92644  0.53050  1.0000
  H   H127      1.0  0.47025  0.94810  0.52995  1.0000
  H   H128      1.0  0.45717  0.92132  0.60457  1.0000
  N   N55       1.0  0.51245  0.90146  0.38898  1.0000
  C   C154      1.0  0.61851  0.48711  0.39681  1.0000
  C   C155      1.0  0.59975  0.48242  0.46499  1.0000
  C   C156      1.0  0.57609  0.45878  0.46496  1.0000
  C   C157      1.0  0.60467  0.50222  0.53630  1.0000
  H   H129      1.0  0.62328  0.51930  0.53100  1.0000
  H   H130      1.0  0.60359  0.49444  0.60495  1.0000
  H   H131      1.0  0.59050  0.50819  0.53062  1.0000
  C   C158      1.0  0.55629  0.45386  0.53621  1.0000
  H   H132      1.0  0.53921  0.43525  0.53084  1.0000
  H   H133      1.0  0.55032  0.46803  0.53051  1.0000
  H   H134      1.0  0.56404  0.45492  0.60488  1.0000
  N   N56       1.0  0.63911  0.51026  0.38905  1.0000
  C   C159      1.0  0.57148  0.15718  0.39666  1.0000
  C   C160      1.0  0.57612  0.14296  0.46444  1.0000
  C   C161      1.0  0.59978  0.14300  0.46443  1.0000
  C   C162      1.0  0.55626  0.12793  0.53536  1.0000
  H   H135      1.0  0.53917  0.12945  0.53009  1.0000
  H   H136      1.0  0.56396  0.13450  0.60418  1.0000
  H   H137      1.0  0.55032  0.10781  0.52914  1.0000
  C   C163      1.0  0.60466  0.12799  0.53532  1.0000
  H   H138      1.0  0.62328  0.12955  0.53003  1.0000
  H   H139      1.0  0.59051  0.10786  0.52913  1.0000
  H   H140      1.0  0.60352  0.13456  0.60415  1.0000
  N   N57       1.0  0.54832  0.15459  0.38882  1.0000
  C   C164      1.0  0.63986  0.66522  0.36251  1.0000
  C   C165      1.0  0.64630  0.65751  0.44506  1.0000
  C   C166      1.0  0.65968  0.64408  0.44504  1.0000
  H   H141      1.0  0.66377  0.63887  0.50693  1.0000
  H   H142      1.0  0.64110  0.66160  0.50697  1.0000
  N   N58       1.0  0.62720  0.67839  0.36983  1.0000
  C   C167      1.0  0.41613  0.04140  0.44587  1.0000
  H   H143      1.0  0.42218  0.05069  0.50756  1.0000
  C   C168      1.0  0.42163  0.39174  0.36368  1.0000
  C   C169      1.0  0.41641  0.40070  0.44586  1.0000
  H   H144      1.0  0.42254  0.39755  0.50754  1.0000
  N   N59       1.0  0.43441  0.37870  0.37176  1.0000
  C   C170      1.0  0.66741  0.05569  0.36246  1.0000
  C   C171      1.0  0.65970  0.04154  0.44502  1.0000
  C   C172      1.0  0.64627  0.01473  0.44500  1.0000
  H   H145      1.0  0.64106  0.00543  0.50689  1.0000
  H   H146      1.0  0.66379  0.05083  0.50692  1.0000
  N   N60       1.0  0.68058  0.08152  0.36978  1.0000
  C   C173      1.0  0.78240  0.58031  0.35849  1.0000
  C   C174      1.0  0.79965  0.59071  0.28253  1.0000
  C   C175      1.0  0.82346  0.59069  0.28246  1.0000
  C   C176      1.0  0.79230  0.60055  0.20060  1.0000
  H   H147      1.0  0.79149  0.58976  0.13934  1.0000
  H   H148      1.0  0.80631  0.62056  0.18973  1.0000
  C   C177      1.0  0.84063  0.60050  0.20047  1.0000
  H   H149      1.0  0.85772  0.59913  0.20614  1.0000
  H   H150      1.0  0.84669  0.62053  0.18969  1.0000
  H   H151      1.0  0.83061  0.58974  0.13921  1.0000
  C   C178      1.0  0.83037  0.27611  0.35826  1.0000
  C   C179      1.0  0.82352  0.25889  0.28222  1.0000
  C   C180      1.0  0.79973  0.23502  0.28228  1.0000
  C   C181      1.0  0.84063  0.26631  0.20008  1.0000
  H   H152      1.0  0.85771  0.28480  0.20573  1.0000
  H   H153      1.0  0.83057  0.26705  0.13897  1.0000
  H   H154      1.0  0.84674  0.25239  0.18902  1.0000
  C   C182      1.0  0.79238  0.21788  0.20024  1.0000
  H   H155      1.0  0.80643  0.21193  0.18907  1.0000
  H   H156      1.0  0.79149  0.22786  0.13913  1.0000
  N   N61       1.0  0.85042  0.30031  0.36077  1.0000
  C   C183      1.0  0.90111  0.48715  0.39676  1.0000
  C   C184      1.0  0.88704  0.46813  0.33092  1.0000
  C   C185      1.0  0.88706  0.44500  0.33091  1.0000
  H   H157      1.0  0.87770  0.43222  0.27926  1.0000
  H   H158      1.0  0.87766  0.47153  0.27926  1.0000
  N   N62       1.0  0.90365  0.51029  0.38895  1.0000
  C   C186      1.0  0.00282  0.39176  0.36366  1.0000
  C   C187      1.0  0.00242  0.38622  0.19106  1.0000
  H   H159      1.0  0.98186  0.37560  0.19897  1.0000
  H   H160      1.0  0.00772  0.37330  0.15893  1.0000
  H   H161      1.0  0.00694  0.40196  0.14406  1.0000
  N   N63       1.0  0.97700  0.37869  0.37150  1.0000
  C   C188      1.0  0.00229  0.64021  0.18891  1.0000
  H   H162      1.0  0.98174  0.63051  0.19677  1.0000
  H   H163      1.0  0.00669  0.62824  0.14540  1.0000
  H   H164      1.0  0.00772  0.65796  0.15287  1.0000
  C   C189      1.0  0.89199  0.58112  0.36388  1.0000
  N   N64       1.0  0.91804  0.59682  0.35985  1.0000
  C   C190      1.0  0.93461  0.58758  0.35909  1.0000
  N   N65       1.0  0.92398  0.56185  0.36192  1.0000
  C   C191      1.0  0.89853  0.54543  0.36624  1.0000
  N   N66       1.0  0.88291  0.55552  0.36650  1.0000
  C   C192      1.0  0.88914  0.51936  0.36768  1.0000
  C   C193      1.0  0.87495  0.59050  0.36337  1.0000
  C   C194      1.0  0.96125  0.60122  0.35007  1.0000
  H   H165      1.0  0.96916  0.59125  0.32759  1.0000
  H   H166      1.0  0.88221  0.60923  0.36387  1.0000
  H   H167      1.0  0.87088  0.50758  0.35401  1.0000
  C   C195      1.0  0.89202  0.33698  0.36358  1.0000
  N   N67       1.0  0.91805  0.34732  0.35867  1.0000
  C   C196      1.0  0.93462  0.37311  0.35778  1.0000
  N   N68       1.0  0.92403  0.38825  0.36100  1.0000
  C   C197      1.0  0.89860  0.37923  0.36623  1.0000
  N   N69       1.0  0.88296  0.35352  0.36675  1.0000
  C   C198      1.0  0.88920  0.39591  0.36806  1.0000
  C   C199      1.0  0.87498  0.31057  0.36311  1.0000
  C   C200      1.0  0.96120  0.38604  0.34690  1.0000
  H   H168      1.0  0.96890  0.40344  0.31986  1.0000
  H   H169      1.0  0.88225  0.29910  0.36346  1.0000
  H   H170      1.0  0.87091  0.38940  0.35496  1.0000
  C   C201      1.0  0.83029  0.58025  0.35834  1.0000
  C   C202      1.0  0.81255  0.56947  0.43087  1.0000
  C   C203      1.0  0.78934  0.56948  0.43090  1.0000
  H   H171      1.0  0.81619  0.56077  0.48441  1.0000
  N   N70       1.0  0.85039  0.57618  0.36089  1.0000
  C   C204      1.0  0.78253  0.22809  0.35840  1.0000
  C   C205      1.0  0.78945  0.24585  0.43085  1.0000
  C   C206      1.0  0.81263  0.26910  0.43081  1.0000
  H   H172      1.0  0.81624  0.28142  0.48437  1.0000
  C   C207      1.0  0.90115  0.44007  0.39678  1.0000
  C   C208      1.0  0.91527  0.45887  0.46482  1.0000
  C   C209      1.0  0.91525  0.48251  0.46482  1.0000
  C   C210      1.0  0.93021  0.45399  0.53598  1.0000
  H   H173      1.0  0.92869  0.43538  0.53067  1.0000
  H   H174      1.0  0.92356  0.45507  0.60469  1.0000
  H   H175      1.0  0.95034  0.46816  0.53010  1.0000
  C   C211      1.0  0.93017  0.50233  0.53598  1.0000
  H   H176      1.0  0.92862  0.51940  0.53066  1.0000
  H   H177      1.0  0.95030  0.50831  0.53011  1.0000
  H   H178      1.0  0.92352  0.49459  0.60469  1.0000
  N   N71       1.0  0.90375  0.41951  0.38889  1.0000
  H   H179      1.0  0.00769  0.39754  0.50753  1.0000
  C   C212      1.0  0.00271  0.63749  0.36253  1.0000
  H   H180      1.0  0.00758  0.63854  0.50695  1.0000
  N   N72       1.0  0.97687  0.62481  0.36992  1.0000
  C   C213      1.0  0.01665  0.39627  0.27940  1.0000
  C   C214      1.0  0.01653  0.64559  0.27780  1.0000
  C   C215      1.0  0.01697  0.40069  0.44587  1.0000
  C   C216      1.0  0.01687  0.64382  0.44505  1.0000
