data_image0
_chemical_formula_structural       C4HC4H2NOHC3NC8HC7HCH4N3C8HC7HCH4N4C3HCHC3HOHCHC3HOHC3HOHCHC3HOHCHC3HOHCHC6H4N3C3OH2CHC3OH2CHC3OH2CHC3OH2CHC3OH2CHC3OH2CH
_chemical_formula_sum              "C96 H54 N12 O12"
_cell_length_a       30.6349
_cell_length_b       30.635
_cell_length_c       14.8443
_cell_angle_alpha    90.0004
_cell_angle_beta     89.9996
_cell_angle_gamma    120

_space_group_name_H-M_alt    "P 1"
_space_group_IT_number       1

loop_
  _space_group_symop_operation_xyz
  'x, y, z'

loop_
  _atom_site_type_symbol
  _atom_site_label
  _atom_site_symmetry_multiplicity
  _atom_site_fract_x
  _atom_site_fract_y
  _atom_site_fract_z
  _atom_site_occupancy
  C   C1        1.0  0.05003  0.55490  0.33930  1.0000
  C   C2        1.0  0.04992  0.46248  0.33490  1.0000
  C   C3        1.0  0.09659  0.50785  0.33919  1.0000
  C   C4        1.0  0.09653  0.55449  0.33800  1.0000
  H   H1        1.0  0.04963  0.42893  0.33657  1.0000
  C   C5        1.0  0.04943  0.60155  0.33928  1.0000
  C   C6        1.0  0.04953  0.69396  0.33484  1.0000
  C   C7        1.0  0.09595  0.69475  0.33548  1.0000
  C   C8        1.0  0.09571  0.64826  0.33691  1.0000
  H   H2        1.0  0.04983  0.72751  0.33651  1.0000
  H   H3        1.0  0.13114  0.79924  0.31702  1.0000
  N   N1        1.0  0.13691  0.50051  0.34634  1.0000
  O   O1        1.0  0.16435  0.42826  0.30888  1.0000
  H   H4        1.0  0.16055  0.43054  0.24354  1.0000
  C   C9        1.0  0.15697  0.78859  0.33275  1.0000
  C   C10       1.0  0.14112  0.60143  0.32752  1.0000
  C   C11       1.0  0.14099  0.64699  0.32917  1.0000
  N   N2        1.0  0.14080  0.73868  0.33807  1.0000
  C   C12       1.0  0.57306  0.60185  0.33928  1.0000
  C   C13       1.0  0.61977  0.60228  0.33692  1.0000
  C   C14       1.0  0.66626  0.64852  0.33552  1.0000
  C   C15       1.0  0.66547  0.69416  0.33488  1.0000
  C   C16       1.0  0.62010  0.69546  0.33911  1.0000
  C   C17       1.0  0.57346  0.64875  0.33799  1.0000
  C   C18       1.0  0.61850  0.55573  0.32912  1.0000
  C   C19       1.0  0.52652  0.64641  0.32762  1.0000
  H   H5        1.0  0.69902  0.72742  0.33655  1.0000
  C   C20       1.0  0.52640  0.55459  0.33930  1.0000
  C   C21       1.0  0.52600  0.50769  0.33798  1.0000
  C   C22       1.0  0.47936  0.46098  0.33915  1.0000
  C   C23       1.0  0.43399  0.46228  0.33497  1.0000
  C   C24       1.0  0.43320  0.50792  0.33556  1.0000
  C   C25       1.0  0.47968  0.55417  0.33699  1.0000
  C   C26       1.0  0.57293  0.51004  0.32745  1.0000
  H   H6        1.0  0.40044  0.42902  0.33656  1.0000
  C   C27       1.0  0.48096  0.60071  0.32918  1.0000
  H   H7        1.0  0.57520  0.47900  0.31162  1.0000
  H   H8        1.0  0.65080  0.55434  0.31965  1.0000
  H   H9        1.0  0.44866  0.60210  0.31963  1.0000
  H   H10       1.0  0.52425  0.67742  0.31152  1.0000
  N   N3        1.0  0.62744  0.74311  0.34630  1.0000
  N   N4        1.0  0.38927  0.50884  0.33810  1.0000
  N   N5        1.0  0.47202  0.41333  0.34633  1.0000
  C   C28       1.0  0.52609  0.07792  0.33949  1.0000
  C   C29       1.0  0.52567  0.12421  0.33709  1.0000
  C   C30       1.0  0.47942  0.12444  0.33558  1.0000
  C   C31       1.0  0.43379  0.07802  0.33497  1.0000
  C   C32       1.0  0.43248  0.03135  0.33925  1.0000
  C   C33       1.0  0.47919  0.03142  0.33818  1.0000
  C   C34       1.0  0.57222  0.16949  0.32935  1.0000
  C   C35       1.0  0.48154  0.98683  0.32774  1.0000
  H   H11       1.0  0.40053  0.07832  0.33649  1.0000
  C   C36       1.0  0.57335  0.07852  0.33950  1.0000
  C   C37       1.0  0.62026  0.12503  0.33820  1.0000
  C   C38       1.0  0.66697  0.12509  0.33930  1.0000
  C   C39       1.0  0.66566  0.07842  0.33506  1.0000
  C   C40       1.0  0.62003  0.03200  0.33565  1.0000
  C   C41       1.0  0.57378  0.03223  0.33715  1.0000
  C   C42       1.0  0.61791  0.16961  0.32771  1.0000
  H   H12       1.0  0.69892  0.07813  0.33651  1.0000
  C   C43       1.0  0.52723  0.98696  0.32941  1.0000
  H   H13       1.0  0.64892  0.20287  0.31156  1.0000
  H   H14       1.0  0.57359  0.20315  0.31957  1.0000
  H   H15       1.0  0.52585  0.95329  0.31960  1.0000
  H   H16       1.0  0.45054  0.95357  0.31156  1.0000
  N   N6        1.0  0.38483  0.99103  0.34632  1.0000
  N   N7        1.0  0.48034  0.16930  0.33812  1.0000
  N   N8        1.0  0.61911  0.98714  0.33816  1.0000
  N   N9        1.0  0.71462  0.16541  0.34637  1.0000
  C   C44       1.0  0.30187  0.48894  0.34273  1.0000
  C   C45       1.0  0.25097  0.45313  0.32312  1.0000
  C   C46       1.0  0.21204  0.46505  0.32945  1.0000
  H   H17       1.0  0.24174  0.41779  0.30150  1.0000
  C   C47       1.0  0.33936  0.47511  0.33277  1.0000
  H   H18       1.0  0.32871  0.43861  0.31711  1.0000
  C   C48       1.0  0.63901  0.91965  0.34274  1.0000
  C   C49       1.0  0.67482  0.90456  0.32313  1.0000
  C   C50       1.0  0.66290  0.85371  0.32945  1.0000
  H   H19       1.0  0.71016  0.93067  0.30152  1.0000
  O   O2        1.0  0.69969  0.84281  0.30889  1.0000
  H   H20       1.0  0.69742  0.83674  0.24354  1.0000
  C   C51       1.0  0.65284  0.97097  0.33279  1.0000
  H   H21       1.0  0.68933  0.99682  0.31714  1.0000
  C   C52       1.0  0.20830  0.82608  0.34270  1.0000
  C   C53       1.0  0.22339  0.87698  0.32308  1.0000
  C   C54       1.0  0.27424  0.91590  0.32940  1.0000
  H   H22       1.0  0.19729  0.88621  0.30146  1.0000
  O   O3        1.0  0.28515  0.96360  0.30883  1.0000
  H   H23       1.0  0.29123  0.96739  0.24349  1.0000
  C   C55       1.0  0.79759  0.66751  0.34272  1.0000
  C   C56       1.0  0.84849  0.70332  0.32312  1.0000
  C   C57       1.0  0.88742  0.69140  0.32944  1.0000
  H   H24       1.0  0.85773  0.73866  0.30151  1.0000
  O   O4        1.0  0.93511  0.72819  0.30887  1.0000
  H   H25       1.0  0.93891  0.72592  0.24353  1.0000
  C   C58       1.0  0.76009  0.68134  0.33275  1.0000
  H   H26       1.0  0.77074  0.71783  0.31710  1.0000
  C   C59       1.0  0.46044  0.23679  0.34272  1.0000
  C   C60       1.0  0.42463  0.25189  0.32311  1.0000
  C   C61       1.0  0.43655  0.30273  0.32944  1.0000
  H   H27       1.0  0.38930  0.22578  0.30148  1.0000
  O   O5        1.0  0.39976  0.31364  0.30886  1.0000
  H   H28       1.0  0.40205  0.31972  0.24352  1.0000
  C   C62       1.0  0.44662  0.18547  0.33275  1.0000
  H   H29       1.0  0.41012  0.15963  0.31708  1.0000
  C   C63       1.0  0.89115  0.33036  0.34270  1.0000
  C   C64       1.0  0.87606  0.27946  0.32311  1.0000
  C   C65       1.0  0.82521  0.24054  0.32944  1.0000
  H   H30       1.0  0.90217  0.27023  0.30150  1.0000
  O   O6        1.0  0.81431  0.19284  0.30889  1.0000
  H   H31       1.0  0.80823  0.18903  0.24356  1.0000
  C   C66       1.0  0.94248  0.36786  0.33273  1.0000
  H   H32       1.0  0.96832  0.35720  0.31708  1.0000
  C   C67       1.0  0.00375  0.50818  0.33694  1.0000
  C   C68       1.0  0.00351  0.46170  0.33551  1.0000
  C   C69       1.0  0.95847  0.50946  0.32914  1.0000
  C   C70       1.0  0.00292  0.60195  0.33798  1.0000
  C   C71       1.0  0.00286  0.64859  0.33910  1.0000
  C   C72       1.0  0.95832  0.55501  0.32767  1.0000
  H   H33       1.0  0.92506  0.55275  0.31149  1.0000
  H   H34       1.0  0.92479  0.47715  0.31959  1.0000
  H   H35       1.0  0.17467  0.67930  0.31960  1.0000
  H   H36       1.0  0.17441  0.60369  0.31161  1.0000
  N   N10       1.0  0.95865  0.41777  0.33807  1.0000
  N   N11       1.0  0.96254  0.65593  0.34627  1.0000
  N   N12       1.0  0.71019  0.64760  0.33808  1.0000
  C   C73       1.0  0.27327  0.54859  0.38173  1.0000
  C   C74       1.0  0.31233  0.53725  0.37278  1.0000
  C   C75       1.0  0.22255  0.51315  0.36050  1.0000
  O   O7        1.0  0.35951  0.57446  0.39520  1.0000
  H   H37       1.0  0.28267  0.58397  0.40352  1.0000
  H   H38       1.0  0.36406  0.56955  0.45926  1.0000
  C   C76       1.0  0.18617  0.52846  0.36933  1.0000
  H   H39       1.0  0.19757  0.56263  0.39844  1.0000
  C   C77       1.0  0.57935  0.83139  0.38171  1.0000
  C   C78       1.0  0.59069  0.88179  0.37278  1.0000
  C   C79       1.0  0.61479  0.81612  0.36049  1.0000
  O   O8        1.0  0.55348  0.89175  0.39518  1.0000
  H   H40       1.0  0.54397  0.80540  0.40348  1.0000
  H   H41       1.0  0.55838  0.90121  0.45925  1.0000
  C   C80       1.0  0.59949  0.76442  0.36931  1.0000
  H   H42       1.0  0.56531  0.74165  0.39836  1.0000
  C   C81       1.0  0.29655  0.85467  0.38169  1.0000
  C   C82       1.0  0.24615  0.81562  0.37276  1.0000
  C   C83       1.0  0.31183  0.90539  0.36046  1.0000
  O   O9        1.0  0.23618  0.76844  0.39519  1.0000
  H   H43       1.0  0.32254  0.84527  0.40348  1.0000
  H   H44       1.0  0.22671  0.76389  0.45925  1.0000
  C   C84       1.0  0.36353  0.94177  0.36929  1.0000
  H   H45       1.0  0.38629  0.93036  0.39839  1.0000
  C   C85       1.0  0.82619  0.60785  0.38170  1.0000
  C   C86       1.0  0.78713  0.61920  0.37277  1.0000
  C   C87       1.0  0.87690  0.64329  0.36047  1.0000
  O   O10       1.0  0.73995  0.58199  0.39518  1.0000
  H   H46       1.0  0.81679  0.57247  0.40348  1.0000
  H   H47       1.0  0.73540  0.58689  0.45924  1.0000
  C   C88       1.0  0.91329  0.62798  0.36927  1.0000
  H   H48       1.0  0.90188  0.59380  0.39834  1.0000
  C   C89       1.0  0.52009  0.32505  0.38174  1.0000
  C   C90       1.0  0.50875  0.27465  0.37279  1.0000
  C   C91       1.0  0.48466  0.34032  0.36050  1.0000
  O   O11       1.0  0.54596  0.26468  0.39520  1.0000
  H   H49       1.0  0.55547  0.35103  0.40353  1.0000
  H   H50       1.0  0.54105  0.25521  0.45927  1.0000
  C   C92       1.0  0.49996  0.39202  0.36933  1.0000
  H   H51       1.0  0.53413  0.41478  0.39842  1.0000
  C   C93       1.0  0.80290  0.30178  0.38168  1.0000
  C   C94       1.0  0.85330  0.34083  0.37274  1.0000
  C   C95       1.0  0.78762  0.25106  0.36048  1.0000
  O   O12       1.0  0.86327  0.38801  0.39514  1.0000
  H   H52       1.0  0.77691  0.31117  0.40346  1.0000
  H   H53       1.0  0.87274  0.39257  0.45920  1.0000
  C   C96       1.0  0.73593  0.21467  0.36932  1.0000
  H   H54       1.0  0.71316  0.22608  0.39840  1.0000
