data_image0
_chemical_formula_structural       C16H20C16H20C16H20C3HOHNHC3HOHNHC3HOHNHC3HOHNHC3HOHNHC3HOHNHC3NC3NC5NC5NC36H26C4H4C3NC3NC5NC5NC36H26C4H4C3NC3NC5NC5NC36H26C4H4C3OH2NHC3OH2NHC3OH2NHC3OH2NHC3OH2NHC3OH2NH
_chemical_formula_sum              "C252 H186 O12 N24"
_cell_length_a       66.3195
_cell_length_b       66.3194
_cell_length_c       15.0081
_cell_angle_alpha    89.958
_cell_angle_beta     90.042
_cell_angle_gamma    120

_space_group_name_H-M_alt    "P 1"
_space_group_IT_number       1

loop_
  _space_group_symop_operation_xyz
  'x, y, z'

loop_
  _atom_site_type_symbol
  _atom_site_label
  _atom_site_symmetry_multiplicity
  _atom_site_fract_x
  _atom_site_fract_y
  _atom_site_fract_z
  _atom_site_occupancy
  C   C1        1.0  0.10017  0.53705  0.24972  1.0000
  C   C2        1.0  0.11841  0.53204  0.24692  1.0000
  C   C3        1.0  0.18694  0.53709  0.25637  1.0000
  C   C4        1.0  0.16707  0.53952  0.25763  1.0000
  C   C5        1.0  0.09854  0.65685  0.26570  1.0000
  C   C6        1.0  0.11405  0.68099  0.27037  1.0000
  C   C7        1.0  0.13403  0.73295  0.29400  1.0000
  C   C8        1.0  0.14965  0.75709  0.29833  1.0000
  C   C9        1.0  0.94113  0.58871  0.24733  1.0000
  C   C10       1.0  0.95921  0.58347  0.24993  1.0000
  C   C11       1.0  0.89281  0.58209  0.25929  1.0000
  C   C12       1.0  0.87324  0.58502  0.25811  1.0000
  C   C13       1.0  0.96071  0.46388  0.26526  1.0000
  C   C14       1.0  0.94500  0.43978  0.26981  1.0000
  C   C15       1.0  0.90821  0.36363  0.29674  1.0000
  C   C16       1.0  0.92421  0.38768  0.29261  1.0000
  H   H1        1.0  0.90881  0.35302  0.24864  1.0000
  H   H2        1.0  0.93626  0.39372  0.24241  1.0000
  H   H3        1.0  0.93708  0.43119  0.21227  1.0000
  H   H4        1.0  0.96413  0.47209  0.20478  1.0000
  H   H5        1.0  0.96683  0.58280  0.19154  1.0000
  H   H6        1.0  0.93623  0.59192  0.18671  1.0000
  H   H7        1.0  0.09504  0.64871  0.20509  1.0000
  H   H8        1.0  0.12177  0.68968  0.21275  1.0000
  H   H9        1.0  0.14868  0.76761  0.25072  1.0000
  H   H10       1.0  0.12187  0.72676  0.24415  1.0000
  H   H11       1.0  0.16610  0.55061  0.21264  1.0000
  H   H12       1.0  0.19958  0.54625  0.21003  1.0000
  H   H13       1.0  0.12324  0.52879  0.18628  1.0000
  H   H14       1.0  0.09239  0.53752  0.19144  1.0000
  H   H15       1.0  0.89341  0.57074  0.21466  1.0000
  H   H16       1.0  0.86042  0.57593  0.21226  1.0000
  H   H17       1.0  0.17962  0.80145  0.32085  1.0000
  H   H18       1.0  0.22357  0.53262  0.27022  1.0000
  H   H19       1.0  0.83723  0.59054  0.27197  1.0000
  H   H20       1.0  0.87752  0.31943  0.31879  1.0000
  C   C17       1.0  0.55510  0.65797  0.25030  1.0000
  C   C18       1.0  0.56010  0.68122  0.24748  1.0000
  C   C19       1.0  0.55506  0.74470  0.25681  1.0000
  C   C20       1.0  0.55262  0.72239  0.25817  1.0000
  C   C21       1.0  0.43529  0.53651  0.26631  1.0000
  C   C22       1.0  0.41115  0.52789  0.27097  1.0000
  C   C23       1.0  0.35919  0.49590  0.29465  1.0000
  C   C24       1.0  0.33505  0.48740  0.29896  1.0000
  C   C25       1.0  0.50342  0.44729  0.24783  1.0000
  C   C26       1.0  0.50867  0.47061  0.25045  1.0000
  C   C27       1.0  0.51001  0.40556  0.25971  1.0000
  C   C28       1.0  0.50709  0.38306  0.25857  1.0000
  C   C29       1.0  0.62827  0.59172  0.26582  1.0000
  C   C30       1.0  0.65237  0.60010  0.27037  1.0000
  C   C31       1.0  0.72852  0.63943  0.29736  1.0000
  C   C32       1.0  0.70447  0.63139  0.29325  1.0000
  H   H21       1.0  0.73913  0.65067  0.24932  1.0000
  H   H22       1.0  0.69843  0.63743  0.24311  1.0000
  H   H23       1.0  0.66096  0.60079  0.21282  1.0000
  H   H24       1.0  0.62006  0.58696  0.20534  1.0000
  H   H25       1.0  0.50934  0.47891  0.19206  1.0000
  H   H26       1.0  0.50020  0.43920  0.18720  1.0000
  H   H27       1.0  0.44343  0.54116  0.20569  1.0000
  H   H28       1.0  0.40246  0.52692  0.21334  1.0000
  H   H29       1.0  0.32453  0.47590  0.25138  1.0000
  H   H30       1.0  0.36538  0.48994  0.24485  1.0000
  H   H31       1.0  0.54155  0.71036  0.21310  1.0000
  H   H32       1.0  0.54590  0.74820  0.21049  1.0000
  H   H33       1.0  0.56336  0.68932  0.18684  1.0000
  H   H34       1.0  0.55462  0.64973  0.19203  1.0000
  H   H35       1.0  0.52138  0.41752  0.21513  1.0000
  H   H36       1.0  0.51618  0.37935  0.21276  1.0000
  H   H37       1.0  0.29069  0.47300  0.32144  1.0000
  H   H38       1.0  0.55953  0.78580  0.27067  1.0000
  H   H39       1.0  0.50159  0.34154  0.27249  1.0000
  H   H40       1.0  0.77271  0.65292  0.31937  1.0000
  C   C33       1.0  0.43419  0.99199  0.25073  1.0000
  C   C34       1.0  0.41095  0.97375  0.24783  1.0000
  C   C35       1.0  0.34747  0.90522  0.25700  1.0000
  C   C36       1.0  0.36977  0.92508  0.25840  1.0000
  C   C37       1.0  0.55561  0.99361  0.26698  1.0000
  C   C38       1.0  0.56424  0.97810  0.27161  1.0000
  C   C39       1.0  0.59623  0.95812  0.29524  1.0000
  C   C40       1.0  0.60474  0.94250  0.29952  1.0000
  C   C41       1.0  0.64483  0.15098  0.24821  1.0000
  C   C42       1.0  0.62150  0.13291  0.25093  1.0000
  C   C43       1.0  0.68655  0.19930  0.25999  1.0000
  C   C44       1.0  0.70905  0.21887  0.25872  1.0000
  C   C45       1.0  0.50044  0.13141  0.26639  1.0000
  C   C46       1.0  0.49204  0.14712  0.27095  1.0000
  C   C47       1.0  0.45271  0.18392  0.29794  1.0000
  C   C48       1.0  0.46075  0.16791  0.29384  1.0000
  H   H41       1.0  0.44147  0.18331  0.24990  1.0000
  H   H42       1.0  0.45471  0.15586  0.24368  1.0000
  H   H43       1.0  0.49135  0.15504  0.21340  1.0000
  H   H44       1.0  0.50520  0.12798  0.20590  1.0000
  H   H45       1.0  0.61318  0.12529  0.19257  1.0000
  H   H46       1.0  0.65289  0.15588  0.18754  1.0000
  H   H47       1.0  0.55095  0.99712  0.20637  1.0000
  H   H48       1.0  0.56520  0.97039  0.21398  1.0000
  H   H49       1.0  0.61624  0.94348  0.25193  1.0000
  H   H50       1.0  0.60219  0.97029  0.24545  1.0000
  H   H51       1.0  0.38182  0.92605  0.21346  1.0000
  H   H52       1.0  0.34398  0.89257  0.21068  1.0000
  H   H53       1.0  0.40287  0.96892  0.18715  1.0000
  H   H54       1.0  0.44246  0.99977  0.19248  1.0000
  H   H55       1.0  0.67456  0.19872  0.21550  1.0000
  H   H56       1.0  0.71274  0.23170  0.21294  1.0000
  H   H57       1.0  0.61914  0.91252  0.32195  1.0000
  H   H58       1.0  0.30636  0.86859  0.27065  1.0000
  H   H59       1.0  0.75058  0.25489  0.27245  1.0000
  H   H60       1.0  0.43921  0.21461  0.31995  1.0000
  C   C49       1.0  0.22824  0.49667  0.32080  1.0000
  C   C50       1.0  0.24388  0.50368  0.24815  1.0000
  C   C51       1.0  0.26592  0.50565  0.25732  1.0000
  H   H61       1.0  0.23959  0.50836  0.18924  1.0000
  O   O1        1.0  0.28106  0.51410  0.18778  1.0000
  H   H62       1.0  0.28018  0.50047  0.15812  1.0000
  N   N1        1.0  0.20741  0.49766  0.31618  1.0000
  H   H63       1.0  0.19864  0.48984  0.25848  1.0000
  C   C52       1.0  0.59548  0.82641  0.32130  1.0000
  C   C53       1.0  0.58847  0.83505  0.24865  1.0000
  C   C54       1.0  0.58650  0.85512  0.25783  1.0000
  H   H64       1.0  0.58379  0.82611  0.18973  1.0000
  O   O2        1.0  0.57805  0.86184  0.18829  1.0000
  H   H65       1.0  0.59168  0.87460  0.15863  1.0000
  N   N2        1.0  0.59449  0.80459  0.31668  1.0000
  H   H66       1.0  0.60231  0.80365  0.25899  1.0000
  C   C55       1.0  0.26574  0.86392  0.32087  1.0000
  C   C56       1.0  0.25713  0.84831  0.24814  1.0000
  C   C57       1.0  0.23705  0.82627  0.25714  1.0000
  H   H67       1.0  0.26610  0.85261  0.18928  1.0000
  O   O3        1.0  0.23038  0.81115  0.18754  1.0000
  H   H68       1.0  0.21764  0.81204  0.15777  1.0000
  N   N3        1.0  0.28756  0.88475  0.31642  1.0000
  H   H69       1.0  0.28854  0.89354  0.25872  1.0000
  C   C58       1.0  0.83369  0.62725  0.32054  1.0000
  C   C59       1.0  0.81799  0.62037  0.24806  1.0000
  C   C60       1.0  0.79622  0.61902  0.25708  1.0000
  H   H70       1.0  0.82202  0.61536  0.18942  1.0000
  O   O4        1.0  0.78098  0.61068  0.18779  1.0000
  H   H71       1.0  0.78220  0.62439  0.15743  1.0000
  N   N4        1.0  0.85420  0.62567  0.31617  1.0000
  H   H72       1.0  0.86299  0.63319  0.25816  1.0000
  C   C61       1.0  0.46489  0.30126  0.32110  1.0000
  C   C62       1.0  0.47176  0.29247  0.24863  1.0000
  C   C63       1.0  0.47312  0.27205  0.25765  1.0000
  H   H73       1.0  0.47678  0.30153  0.18998  1.0000
  O   O5        1.0  0.48146  0.26517  0.18837  1.0000
  H   H74       1.0  0.46775  0.25269  0.15801  1.0000
  N   N5        1.0  0.46645  0.32335  0.31671  1.0000
  H   H75       1.0  0.45893  0.32463  0.25871  1.0000
  C   C64       1.0  0.79087  0.25844  0.32063  1.0000
  C   C65       1.0  0.79963  0.27411  0.24808  1.0000
  C   C66       1.0  0.82005  0.29588  0.25694  1.0000
  H   H76       1.0  0.79053  0.27007  0.18950  1.0000
  O   O6        1.0  0.82690  0.31111  0.18759  1.0000
  H   H77       1.0  0.83935  0.30987  0.15712  1.0000
  N   N6        1.0  0.76878  0.23792  0.31642  1.0000
  H   H78       1.0  0.76746  0.22912  0.25841  1.0000
  C   C67       1.0  0.02079  0.49207  0.33420  1.0000
  C   C68       1.0  0.04479  0.50494  0.33276  1.0000
  C   C69       1.0  0.05143  0.52854  0.33403  1.0000
  N   N7        1.0  0.03127  0.52907  0.33600  1.0000
  C   C70       1.0  0.01221  0.50750  0.33652  1.0000
  C   C71       1.0  0.98821  0.50079  0.33880  1.0000
  C   C72       1.0  0.97947  0.51644  0.33831  1.0000
  N   N8        1.0  0.99183  0.53995  0.33616  1.0000
  C   C73       1.0  0.97788  0.54937  0.33615  1.0000
  C   C74       1.0  0.95506  0.53067  0.33798  1.0000
  C   C75       1.0  0.95605  0.51037  0.33988  1.0000
  C   C76       1.0  0.98467  0.57335  0.33437  1.0000
  C   C77       1.0  0.00807  0.59207  0.33422  1.0000
  N   N9        1.0  0.02823  0.59153  0.33617  1.0000
  C   C78       1.0  0.04729  0.61311  0.33679  1.0000
  C   C79       1.0  0.03871  0.62854  0.33453  1.0000
  C   C80       1.0  0.01471  0.61567  0.33300  1.0000
  C   C81       1.0  0.07129  0.61981  0.33911  1.0000
  C   C82       1.0  0.08002  0.60416  0.33851  1.0000
  N   N10       1.0  0.06767  0.58066  0.33632  1.0000
  C   C83       1.0  0.08162  0.57124  0.33616  1.0000
  C   C84       1.0  0.10444  0.58995  0.33784  1.0000
  C   C85       1.0  0.10345  0.61024  0.33992  1.0000
  C   C86       1.0  0.07483  0.54727  0.33426  1.0000
  C   C87       1.0  0.09289  0.54162  0.33181  1.0000
  C   C88       1.0  0.12990  0.53152  0.32579  1.0000
  C   C89       1.0  0.12218  0.53579  0.40792  1.0000
  C   C90       1.0  0.10391  0.54077  0.41103  1.0000
  C   C91       1.0  0.14939  0.52792  0.32225  1.0000
  C   C92       1.0  0.15223  0.51355  0.38497  1.0000
  C   C93       1.0  0.17218  0.51119  0.38399  1.0000
  C   C94       1.0  0.18985  0.52302  0.31989  1.0000
  C   C95       1.0  0.08779  0.64405  0.34364  1.0000
  C   C96       1.0  0.11918  0.69301  0.35273  1.0000
  C   C97       1.0  0.10831  0.67992  0.43046  1.0000
  C   C98       1.0  0.09284  0.65579  0.42613  1.0000
  C   C99       1.0  0.13484  0.71755  0.35749  1.0000
  C   C100      1.0  0.16663  0.76664  0.36636  1.0000
  C   C101      1.0  0.16724  0.75138  0.43069  1.0000
  C   C102      1.0  0.15169  0.72727  0.42613  1.0000
  C   C103      1.0  0.96663  0.57901  0.33202  1.0000
  C   C104      1.0  0.95587  0.58018  0.41142  1.0000
  C   C105      1.0  0.93777  0.58539  0.40851  1.0000
  C   C106      1.0  0.92995  0.58960  0.32642  1.0000
  C   C107      1.0  0.91071  0.59361  0.32318  1.0000
  C   C108      1.0  0.87086  0.59952  0.32104  1.0000
  C   C109      1.0  0.88875  0.61125  0.38448  1.0000
  C   C110      1.0  0.90840  0.60839  0.38534  1.0000
  C   C111      1.0  0.97169  0.47656  0.34315  1.0000
  C   C112      1.0  0.96670  0.46472  0.42547  1.0000
  C   C113      1.0  0.93989  0.42767  0.35202  1.0000
  C   C114      1.0  0.95103  0.44063  0.42969  1.0000
  C   C115      1.0  0.92392  0.40319  0.35673  1.0000
  C   C116      1.0  0.90718  0.39368  0.42578  1.0000
  C   C117      1.0  0.89126  0.36964  0.43017  1.0000
  C   C118      1.0  0.89135  0.35428  0.36517  1.0000
  H   H79       1.0  0.87933  0.36348  0.48077  1.0000
  H   H80       1.0  0.90603  0.40423  0.47276  1.0000
  H   H81       1.0  0.94822  0.43255  0.49022  1.0000
  H   H82       1.0  0.97464  0.47351  0.48270  1.0000
  H   H83       1.0  0.01140  0.47429  0.33367  1.0000
  H   H84       1.0  0.05542  0.49791  0.33161  1.0000
  H   H85       1.0  0.03059  0.54318  0.33838  1.0000
  H   H86       1.0  0.02891  0.57743  0.33852  1.0000
  H   H87       1.0  0.94185  0.49400  0.34163  1.0000
  H   H88       1.0  0.94002  0.53139  0.33840  1.0000
  H   H89       1.0  0.96092  0.57691  0.47166  1.0000
  H   H90       1.0  0.92984  0.58534  0.46704  1.0000
  H   H91       1.0  0.00408  0.62271  0.33185  1.0000
  H   H92       1.0  0.04810  0.64632  0.33406  1.0000
  H   H93       1.0  0.11948  0.58924  0.33810  1.0000
  H   H94       1.0  0.11765  0.62662  0.34155  1.0000
  H   H95       1.0  0.08503  0.64691  0.48339  1.0000
  H   H96       1.0  0.11114  0.68794  0.49111  1.0000
  H   H97       1.0  0.15319  0.71680  0.47264  1.0000
  H   H98       1.0  0.17925  0.75770  0.48101  1.0000
  H   H99       1.0  0.09899  0.54416  0.47124  1.0000
  H   H100      1.0  0.13034  0.53615  0.46626  1.0000
  H   H101      1.0  0.17390  0.50105  0.43136  1.0000
  H   H102      1.0  0.13982  0.50472  0.43245  1.0000
  H   H103      1.0  0.92100  0.61718  0.43227  1.0000
  H   H104      1.0  0.88741  0.62171  0.43140  1.0000
  C   C119      1.0  0.18393  0.79198  0.36993  1.0000
  C   C120      1.0  0.21164  0.52186  0.32302  1.0000
  C   C121      1.0  0.87362  0.32906  0.36847  1.0000
  C   C122      1.0  0.84940  0.60129  0.32420  1.0000
  H   H105      1.0  0.18329  0.79869  0.43579  1.0000
  H   H106      1.0  0.22015  0.52935  0.38666  1.0000
  H   H107      1.0  0.84094  0.59413  0.38822  1.0000
  H   H108      1.0  0.87421  0.32214  0.43401  1.0000
  C   C123      1.0  0.60007  0.62355  0.33517  1.0000
  C   C124      1.0  0.58720  0.63467  0.33370  1.0000
  C   C125      1.0  0.56360  0.61772  0.33479  1.0000
  N   N11       1.0  0.56307  0.59702  0.33666  1.0000
  C   C126      1.0  0.58464  0.59954  0.33724  1.0000
  C   C127      1.0  0.59135  0.58224  0.33940  1.0000
  C   C128      1.0  0.57570  0.55786  0.33883  1.0000
  N   N12       1.0  0.55219  0.54671  0.33674  1.0000
  C   C129      1.0  0.54277  0.52333  0.33668  1.0000
  C   C130      1.0  0.56147  0.51922  0.33840  1.0000
  C   C131      1.0  0.58177  0.54050  0.34031  1.0000
  C   C132      1.0  0.51880  0.50616  0.33492  1.0000
  C   C133      1.0  0.50007  0.51083  0.33480  1.0000
  N   N13       1.0  0.50061  0.53152  0.33676  1.0000
  C   C134      1.0  0.47903  0.52900  0.33745  1.0000
  C   C135      1.0  0.46361  0.50499  0.33527  1.0000
  C   C136      1.0  0.47648  0.49387  0.33366  1.0000
  C   C137      1.0  0.47233  0.54630  0.33974  1.0000
  C   C138      1.0  0.48797  0.57068  0.33908  1.0000
  N   N14       1.0  0.51148  0.58183  0.33695  1.0000
  C   C139      1.0  0.52090  0.60521  0.33670  1.0000
  C   C140      1.0  0.50219  0.60931  0.33832  1.0000
  C   C141      1.0  0.48189  0.58803  0.34036  1.0000
  C   C142      1.0  0.54487  0.62238  0.33487  1.0000
  C   C143      1.0  0.55052  0.64609  0.33239  1.0000
  C   C144      1.0  0.56061  0.69320  0.32633  1.0000
  C   C145      1.0  0.55632  0.68118  0.40846  1.0000
  C   C146      1.0  0.55137  0.65795  0.41160  1.0000
  C   C147      1.0  0.56423  0.71630  0.32276  1.0000
  C   C148      1.0  0.57858  0.73349  0.38548  1.0000
  C   C149      1.0  0.58095  0.75580  0.38448  1.0000
  C   C150      1.0  0.56913  0.76166  0.32036  1.0000
  C   C151      1.0  0.44809  0.53856  0.34426  1.0000
  C   C152      1.0  0.39913  0.52100  0.35333  1.0000
  C   C153      1.0  0.41222  0.52321  0.43109  1.0000
  C   C154      1.0  0.43635  0.53187  0.42676  1.0000
  C   C155      1.0  0.37459  0.51211  0.35808  1.0000
  C   C156      1.0  0.32550  0.49482  0.36693  1.0000
  C   C157      1.0  0.34077  0.51068  0.43121  1.0000
  C   C158      1.0  0.36488  0.51925  0.42663  1.0000
  C   C159      1.0  0.51314  0.48245  0.33255  1.0000
  C   C160      1.0  0.51197  0.47049  0.41194  1.0000
  C   C161      1.0  0.50677  0.44718  0.40899  1.0000
  C   C162      1.0  0.50253  0.43518  0.32690  1.0000
  C   C163      1.0  0.49850  0.41192  0.32363  1.0000
  C   C164      1.0  0.49259  0.36616  0.32153  1.0000
  C   C165      1.0  0.48086  0.37230  0.38496  1.0000
  C   C166      1.0  0.48373  0.39481  0.38582  1.0000
  C   C167      1.0  0.61559  0.58996  0.34373  1.0000
  C   C168      1.0  0.62742  0.59675  0.42607  1.0000
  C   C169      1.0  0.66447  0.60704  0.35261  1.0000
  C   C170      1.0  0.65151  0.60516  0.43029  1.0000
  C   C171      1.0  0.68895  0.61554  0.35731  1.0000
  C   C172      1.0  0.69846  0.60827  0.42629  1.0000
  C   C173      1.0  0.72249  0.61637  0.43065  1.0000
  C   C174      1.0  0.73786  0.63187  0.36572  1.0000
  H   H109      1.0  0.72866  0.61058  0.48121  1.0000
  H   H110      1.0  0.68790  0.59653  0.47321  1.0000
  H   H111      1.0  0.65959  0.61039  0.49083  1.0000
  H   H112      1.0  0.61862  0.59586  0.48332  1.0000
  H   H113      1.0  0.61785  0.63195  0.33474  1.0000
  H   H114      1.0  0.59423  0.65234  0.33272  1.0000
  H   H115      1.0  0.54896  0.58223  0.33854  1.0000
  H   H116      1.0  0.51472  0.54631  0.33905  1.0000
  H   H117      1.0  0.59815  0.54268  0.34201  1.0000
  H   H118      1.0  0.56076  0.50346  0.33880  1.0000
  H   H119      1.0  0.51524  0.47878  0.47218  1.0000
  H   H120      1.0  0.50679  0.43927  0.46753  1.0000
  H   H121      1.0  0.46944  0.47620  0.33263  1.0000
  H   H122      1.0  0.44582  0.49660  0.33488  1.0000
  H   H123      1.0  0.50290  0.62506  0.33848  1.0000
  H   H124      1.0  0.46551  0.58584  0.34198  1.0000
  H   H125      1.0  0.44523  0.53292  0.48403  1.0000
  H   H126      1.0  0.40420  0.51801  0.49174  1.0000
  H   H127      1.0  0.37534  0.53120  0.47314  1.0000
  H   H128      1.0  0.33445  0.51638  0.48148  1.0000
  H   H129      1.0  0.54796  0.64961  0.47182  1.0000
  H   H130      1.0  0.55599  0.68898  0.46681  1.0000
  H   H131      1.0  0.59108  0.76764  0.43189  1.0000
  H   H132      1.0  0.58741  0.72988  0.43300  1.0000
  H   H133      1.0  0.47495  0.39861  0.43276  1.0000
  H   H134      1.0  0.47042  0.36049  0.43193  1.0000
  C   C175      1.0  0.30016  0.48678  0.37046  1.0000
  C   C176      1.0  0.57029  0.78461  0.32350  1.0000
  C   C177      1.0  0.76308  0.63936  0.36899  1.0000
  C   C178      1.0  0.49083  0.34293  0.32473  1.0000
  H   H135      1.0  0.29345  0.47943  0.43634  1.0000
  H   H136      1.0  0.56279  0.78561  0.38712  1.0000
  H   H137      1.0  0.49799  0.34162  0.38875  1.0000
  H   H138      1.0  0.77000  0.64682  0.43456  1.0000
  C   C179      1.0  0.46860  0.07135  0.33556  1.0000
  C   C180      1.0  0.45747  0.04736  0.33412  1.0000
  C   C181      1.0  0.47442  0.04071  0.33528  1.0000
  N   N15       1.0  0.49512  0.06087  0.33721  1.0000
  C   C182      1.0  0.49261  0.07994  0.33775  1.0000
  C   C183      1.0  0.50990  0.10394  0.33994  1.0000
  C   C184      1.0  0.53429  0.11267  0.33944  1.0000
  N   N16       1.0  0.54544  0.10031  0.33734  1.0000
  C   C185      1.0  0.56881  0.11426  0.33730  1.0000
  C   C186      1.0  0.57293  0.13708  0.33899  1.0000
  C   C187      1.0  0.55164  0.13609  0.34097  1.0000
  C   C188      1.0  0.58598  0.10746  0.33556  1.0000
  C   C189      1.0  0.58131  0.08407  0.33548  1.0000
  N   N17       1.0  0.56062  0.06391  0.33750  1.0000
  C   C190      1.0  0.56313  0.04485  0.33814  1.0000
  C   C191      1.0  0.58714  0.05343  0.33588  1.0000
  C   C192      1.0  0.59827  0.07743  0.33430  1.0000
  C   C193      1.0  0.54584  0.02085  0.34045  1.0000
  C   C194      1.0  0.52146  0.01212  0.33978  1.0000
  N   N18       1.0  0.51030  0.02447  0.33760  1.0000
  C   C195      1.0  0.48693  0.01052  0.33732  1.0000
  C   C196      1.0  0.48282  0.98770  0.33898  1.0000
  C   C197      1.0  0.50411  0.98869  0.34109  1.0000
  C   C198      1.0  0.46975  0.01732  0.33542  1.0000
  C   C199      1.0  0.44605  0.99926  0.33287  1.0000
  C   C200      1.0  0.39894  0.96224  0.32664  1.0000
  C   C201      1.0  0.41094  0.96994  0.40882  1.0000
  C   C202      1.0  0.43417  0.98822  0.41204  1.0000
  C   C203      1.0  0.37584  0.94276  0.32300  1.0000
  C   C204      1.0  0.35864  0.93991  0.38560  1.0000
  C   C205      1.0  0.33633  0.91997  0.38453  1.0000
  C   C206      1.0  0.33049  0.90230  0.32042  1.0000
  C   C207      1.0  0.55357  0.00435  0.34495  1.0000
  C   C208      1.0  0.57114  0.97295  0.35397  1.0000
  C   C209      1.0  0.56893  0.98380  0.43173  1.0000
  C   C210      1.0  0.56028  0.99928  0.42743  1.0000
  C   C211      1.0  0.58003  0.95729  0.35869  1.0000
  C   C212      1.0  0.59732  0.92550  0.36748  1.0000
  C   C213      1.0  0.58147  0.92488  0.43179  1.0000
  C   C214      1.0  0.57290  0.94042  0.42726  1.0000
  C   C215      1.0  0.60969  0.12551  0.33309  1.0000
  C   C216      1.0  0.62168  0.13626  0.41243  1.0000
  C   C217      1.0  0.64499  0.15438  0.40940  1.0000
  C   C218      1.0  0.65696  0.16218  0.32724  1.0000
  C   C219      1.0  0.68021  0.18141  0.32388  1.0000
  C   C220      1.0  0.72598  0.22126  0.32156  1.0000
  C   C221      1.0  0.71986  0.20337  0.38498  1.0000
  C   C222      1.0  0.69735  0.18372  0.38594  1.0000
  C   C223      1.0  0.50218  0.12045  0.34429  1.0000
  C   C224      1.0  0.49539  0.12546  0.42663  1.0000
  C   C225      1.0  0.48510  0.15225  0.35318  1.0000
  C   C226      1.0  0.48697  0.14113  0.43086  1.0000
  C   C227      1.0  0.47660  0.16823  0.35789  1.0000
  C   C228      1.0  0.48386  0.18498  0.42689  1.0000
  C   C229      1.0  0.47577  0.20091  0.43123  1.0000
  C   C230      1.0  0.46027  0.20080  0.36631  1.0000
  H   H139      1.0  0.48155  0.21285  0.48181  1.0000
  H   H140      1.0  0.49560  0.18615  0.47380  1.0000
  H   H141      1.0  0.48174  0.14396  0.49140  1.0000
  H   H142      1.0  0.49627  0.11753  0.48387  1.0000
  H   H143      1.0  0.46020  0.08074  0.33505  1.0000
  H   H144      1.0  0.43980  0.03672  0.33301  1.0000
  H   H145      1.0  0.50991  0.06156  0.33928  1.0000
  H   H146      1.0  0.54583  0.06323  0.33986  1.0000
  H   H147      1.0  0.54947  0.15029  0.34262  1.0000
  H   H148      1.0  0.58869  0.15212  0.33946  1.0000
  H   H149      1.0  0.61340  0.13124  0.47270  1.0000
  H   H150      1.0  0.65291  0.16230  0.46789  1.0000
  H   H151      1.0  0.61594  0.08805  0.33307  1.0000
  H   H152      1.0  0.59554  0.04404  0.33539  1.0000
  H   H153      1.0  0.46707  0.97266  0.33913  1.0000
  H   H154      1.0  0.50629  0.97449  0.34270  1.0000
  H   H155      1.0  0.55922  0.00708  0.48470  1.0000
  H   H156      1.0  0.57413  0.98096  0.49237  1.0000
  H   H157      1.0  0.56094  0.93890  0.47375  1.0000
  H   H158      1.0  0.57577  0.91284  0.48204  1.0000
  H   H159      1.0  0.44249  0.99314  0.47230  1.0000
  H   H160      1.0  0.40312  0.96179  0.46715  1.0000
  H   H161      1.0  0.32446  0.91824  0.43183  1.0000
  H   H162      1.0  0.36222  0.95232  0.43310  1.0000
  H   H163      1.0  0.69357  0.17112  0.43286  1.0000
  H   H164      1.0  0.73169  0.20471  0.43183  1.0000
  C   C231      1.0  0.60536  0.90819  0.37099  1.0000
  C   C232      1.0  0.30753  0.88052  0.32344  1.0000
  C   C233      1.0  0.45278  0.21854  0.36958  1.0000
  C   C234      1.0  0.74920  0.24272  0.32464  1.0000
  H   H165      1.0  0.61272  0.90881  0.43686  1.0000
  H   H166      1.0  0.30650  0.87199  0.38708  1.0000
  H   H167      1.0  0.75055  0.25118  0.38868  1.0000
  H   H168      1.0  0.44532  0.21797  0.43514  1.0000
  C   C235      1.0  0.25680  0.49301  0.41196  1.0000
  C   C236      1.0  0.23467  0.49090  0.40259  1.0000
  C   C237      1.0  0.27274  0.50089  0.34026  1.0000
  O   O7        1.0  0.22005  0.48427  0.47386  1.0000
  H   H169      1.0  0.26174  0.49000  0.47278  1.0000
  H   H170      1.0  0.22479  0.49839  0.50942  1.0000
  N   N19       1.0  0.29612  0.50645  0.35120  1.0000
  H   H171      1.0  0.30349  0.51903  0.39957  1.0000
  C   C238      1.0  0.59913  0.85858  0.41247  1.0000
  C   C239      1.0  0.60124  0.83857  0.40310  1.0000
  C   C240      1.0  0.59125  0.86667  0.34076  1.0000
  O   O8        1.0  0.60787  0.83056  0.47437  1.0000
  H   H172      1.0  0.60214  0.86652  0.47329  1.0000
  H   H173      1.0  0.59375  0.82116  0.50992  1.0000
  N   N20       1.0  0.58569  0.88449  0.35170  1.0000
  H   H174      1.0  0.57311  0.87925  0.40008  1.0000
  C   C241      1.0  0.23351  0.83534  0.41178  1.0000
  C   C242      1.0  0.25354  0.85747  0.40257  1.0000
  C   C243      1.0  0.22546  0.81942  0.34000  1.0000
  O   O9        1.0  0.26151  0.87206  0.47391  1.0000
  H   H175      1.0  0.22555  0.83037  0.47254  1.0000
  H   H176      1.0  0.27088  0.86731  0.50955  1.0000
  N   N21       1.0  0.20764  0.79603  0.35079  1.0000
  H   H177      1.0  0.21286  0.78865  0.39918  1.0000
  C   C244      1.0  0.80575  0.63199  0.41120  1.0000
  C   C245      1.0  0.82761  0.63349  0.40198  1.0000
  C   C246      1.0  0.78973  0.62425  0.33970  1.0000
  O   O10       1.0  0.84228  0.64000  0.47308  1.0000
  H   H178      1.0  0.80102  0.63534  0.47182  1.0000
  H   H179      1.0  0.83726  0.62592  0.50931  1.0000
  N   N22       1.0  0.76652  0.61928  0.35066  1.0000
  H   H180      1.0  0.75898  0.60685  0.39954  1.0000
  C   C247      1.0  0.46015  0.26855  0.41178  1.0000
  C   C248      1.0  0.45865  0.28892  0.40255  1.0000
  C   C249      1.0  0.46789  0.26030  0.34028  1.0000
  O   O11       1.0  0.45213  0.29705  0.47364  1.0000
  H   H181      1.0  0.45680  0.26046  0.47240  1.0000
  H   H182      1.0  0.46621  0.30610  0.50986  1.0000
  N   N23       1.0  0.47286  0.24206  0.35125  1.0000
  H   H183      1.0  0.48529  0.24694  0.40012  1.0000
  C   C250      1.0  0.82363  0.28640  0.41104  1.0000
  C   C251      1.0  0.80326  0.26454  0.40197  1.0000
  C   C252      1.0  0.83185  0.30240  0.33947  1.0000
  O   O12       1.0  0.79516  0.24988  0.47314  1.0000
  H   H184      1.0  0.83175  0.29115  0.47160  1.0000
  H   H185      1.0  0.78614  0.25492  0.50945  1.0000
  N   N24       1.0  0.85008  0.32561  0.35030  1.0000
  H   H186      1.0  0.84523  0.33316  0.39920  1.0000
