data_image0
_chemical_formula_structural       C2H2C4H2C2H2C4H2C2H2C4H2C6H4C6H4C6H4C6H4C6H4C6H4NC18H12NC18H12NC18H12NC18H12NC18H12NC18H12C6H4C6H4C6H4C2H2C4H2C2H2C4H2C2H2C4H2C2H2C4H2C2H2C4H2C2H2C4H2
_chemical_formula_sum              "C216 H144 N6"
_cell_length_a       68.9276
_cell_length_b       68.9276
_cell_length_c       14.9097
_cell_angle_alpha    90
_cell_angle_beta     90
_cell_angle_gamma    120

_space_group_name_H-M_alt    "P 1"
_space_group_IT_number       1

loop_
  _space_group_symop_operation_xyz
  'x, y, z'

loop_
  _atom_site_type_symbol
  _atom_site_label
  _atom_site_symmetry_multiplicity
  _atom_site_fract_x
  _atom_site_fract_y
  _atom_site_fract_z
  _atom_site_occupancy
  C   C1        1.0  0.98033  0.49508  0.26634  1.0000
  C   C2        1.0  0.95672  0.48297  0.26577  1.0000
  H   H1        1.0  0.98813  0.50282  0.20803  1.0000
  H   H2        1.0  0.94897  0.48182  0.20602  1.0000
  C   C3        1.0  0.01730  0.50905  0.34446  1.0000
  C   C4        1.0  0.06624  0.53347  0.34489  1.0000
  C   C5        1.0  0.05363  0.52442  0.26523  1.0000
  C   C6        1.0  0.03001  0.51233  0.26527  1.0000
  H   H3        1.0  0.06146  0.52668  0.20480  1.0000
  H   H4        1.0  0.02227  0.50569  0.20555  1.0000
  C   C7        1.0  0.51373  0.48703  0.26035  1.0000
  C   C8        1.0  0.52567  0.47536  0.26059  1.0000
  H   H5        1.0  0.50654  0.48759  0.20120  1.0000
  H   H6        1.0  0.52728  0.46910  0.20071  1.0000
  C   C9        1.0  0.49931  0.50969  0.33807  1.0000
  C   C10       1.0  0.47511  0.53443  0.33707  1.0000
  C   C11       1.0  0.48506  0.53160  0.25852  1.0000
  C   C12       1.0  0.49702  0.51994  0.25930  1.0000
  H   H7        1.0  0.48355  0.53781  0.19835  1.0000
  H   H8        1.0  0.50432  0.51934  0.20053  1.0000
  C   C13       1.0  0.52179  0.02698  0.26602  1.0000
  C   C14       1.0  0.53340  0.05060  0.26555  1.0000
  H   H9        1.0  0.52201  0.01920  0.20808  1.0000
  H   H10       1.0  0.54033  0.05834  0.20613  1.0000
  C   C15       1.0  0.49810  0.98998  0.34326  1.0000
  C   C16       1.0  0.47303  0.94099  0.34337  1.0000
  C   C17       1.0  0.47752  0.95370  0.26336  1.0000
  C   C18       1.0  0.48928  0.97732  0.26350  1.0000
  H   H11       1.0  0.47244  0.94593  0.20257  1.0000
  H   H12       1.0  0.49100  0.98509  0.20334  1.0000
  C   C19       1.0  0.23094  0.55846  0.32534  1.0000
  C   C20       1.0  0.24808  0.57061  0.26147  1.0000
  C   C21       1.0  0.26788  0.56941  0.25951  1.0000
  C   C22       1.0  0.27152  0.55629  0.32266  1.0000
  C   C23       1.0  0.29997  0.54996  0.24870  1.0000
  C   C24       1.0  0.32093  0.55104  0.24991  1.0000
  H   H13       1.0  0.29031  0.54426  0.19210  1.0000
  H   H14       1.0  0.32563  0.54583  0.19399  1.0000
  H   H15       1.0  0.24680  0.58127  0.21735  1.0000
  H   H16       1.0  0.28003  0.57895  0.21378  1.0000
  C   C25       1.0  0.44995  0.67401  0.34261  1.0000
  C   C26       1.0  0.43641  0.67832  0.28399  1.0000
  C   C27       1.0  0.43712  0.69907  0.28481  1.0000
  C   C28       1.0  0.45161  0.71660  0.34328  1.0000
  C   C29       1.0  0.44870  0.74712  0.26583  1.0000
  C   C30       1.0  0.44723  0.76677  0.26833  1.0000
  H   H17       1.0  0.44712  0.73964  0.20492  1.0000
  H   H18       1.0  0.44376  0.77209  0.20961  1.0000
  H   H19       1.0  0.42526  0.66605  0.24197  1.0000
  H   H20       1.0  0.42631  0.70094  0.24352  1.0000
  C   C31       1.0  0.33162  0.77825  0.31608  1.0000
  C   C32       1.0  0.32878  0.75811  0.27866  1.0000
  C   C33       1.0  0.30778  0.73838  0.27877  1.0000
  C   C34       1.0  0.28862  0.73787  0.31585  1.0000
  C   C35       1.0  0.26020  0.70237  0.24424  1.0000
  C   C36       1.0  0.24047  0.68137  0.24886  1.0000
  H   H21       1.0  0.26953  0.70633  0.18675  1.0000
  H   H22       1.0  0.23674  0.67072  0.19563  1.0000
  H   H23       1.0  0.34222  0.75737  0.25351  1.0000
  H   H24       1.0  0.30685  0.72412  0.25363  1.0000
  C   C37       1.0  0.77901  0.44716  0.34514  1.0000
  C   C38       1.0  0.76400  0.43884  0.27146  1.0000
  C   C39       1.0  0.74419  0.44000  0.26974  1.0000
  C   C40       1.0  0.73836  0.44924  0.34243  1.0000
  C   C41       1.0  0.71109  0.45751  0.26865  1.0000
  C   C42       1.0  0.69021  0.45658  0.26764  1.0000
  H   H25       1.0  0.72160  0.46447  0.21496  1.0000
  H   H26       1.0  0.68633  0.46303  0.21323  1.0000
  H   H27       1.0  0.76689  0.43105  0.21906  1.0000
  H   H28       1.0  0.73360  0.43321  0.21619  1.0000
  C   C43       1.0  0.56032  0.33237  0.34406  1.0000
  C   C44       1.0  0.56864  0.32567  0.27043  1.0000
  C   C45       1.0  0.56754  0.30473  0.26888  1.0000
  C   C46       1.0  0.55832  0.28967  0.34163  1.0000
  C   C47       1.0  0.55012  0.25413  0.26801  1.0000
  C   C48       1.0  0.55105  0.23417  0.26719  1.0000
  H   H29       1.0  0.54318  0.25766  0.21421  1.0000
  H   H30       1.0  0.54462  0.22383  0.21279  1.0000
  H   H31       1.0  0.57642  0.33635  0.21798  1.0000
  H   H32       1.0  0.57432  0.30092  0.21533  1.0000
  C   C49       1.0  0.67514  0.22834  0.34551  1.0000
  C   C50       1.0  0.68186  0.24335  0.27184  1.0000
  C   C51       1.0  0.70283  0.26316  0.27022  1.0000
  C   C52       1.0  0.71786  0.26899  0.34302  1.0000
  C   C53       1.0  0.75342  0.29628  0.26945  1.0000
  C   C54       1.0  0.77337  0.31717  0.26854  1.0000
  H   H33       1.0  0.74991  0.28578  0.21576  1.0000
  H   H34       1.0  0.78373  0.32106  0.21421  1.0000
  H   H35       1.0  0.67119  0.24046  0.21936  1.0000
  H   H36       1.0  0.70665  0.27376  0.21666  1.0000
  N   N1        1.0  0.16282  0.58167  0.34713  1.0000
  C   C55       1.0  0.17537  0.60547  0.34560  1.0000
  C   C56       1.0  0.13897  0.56969  0.34578  1.0000
  C   C57       1.0  0.17578  0.57090  0.34072  1.0000
  C   C58       1.0  0.18434  0.56638  0.41889  1.0000
  C   C59       1.0  0.20188  0.56152  0.41355  1.0000
  C   C60       1.0  0.21132  0.56076  0.32992  1.0000
  C   C61       1.0  0.20161  0.56403  0.25161  1.0000
  C   C62       1.0  0.18442  0.56937  0.25692  1.0000
  C   C63       1.0  0.17821  0.61753  0.26566  1.0000
  C   C64       1.0  0.19430  0.64051  0.26061  1.0000
  C   C65       1.0  0.20823  0.65211  0.33477  1.0000
  C   C66       1.0  0.20439  0.63997  0.41586  1.0000
  C   C67       1.0  0.18816  0.61712  0.42136  1.0000
  C   C68       1.0  0.12676  0.57346  0.41264  1.0000
  C   C69       1.0  0.10316  0.56200  0.41123  1.0000
  C   C70       1.0  0.09056  0.54559  0.34514  1.0000
  C   C71       1.0  0.10320  0.54176  0.27933  1.0000
  C   C72       1.0  0.12681  0.55380  0.27853  1.0000
  H   H37       1.0  0.19633  0.64849  0.20059  1.0000
  H   H38       1.0  0.16949  0.60933  0.20934  1.0000
  H   H39       1.0  0.18678  0.60867  0.47953  1.0000
  H   H40       1.0  0.21441  0.64719  0.47056  1.0000
  H   H41       1.0  0.17910  0.56841  0.48055  1.0000
  H   H42       1.0  0.20874  0.56017  0.47237  1.0000
  H   H43       1.0  0.13507  0.58504  0.46182  1.0000
  H   H44       1.0  0.09534  0.56622  0.45918  1.0000
  H   H45       1.0  0.09541  0.52977  0.23116  1.0000
  H   H46       1.0  0.13511  0.55049  0.22947  1.0000
  H   H47       1.0  0.17906  0.57334  0.19949  1.0000
  H   H48       1.0  0.20761  0.56352  0.18945  1.0000
  N   N2        1.0  0.42710  0.58315  0.33588  1.0000
  C   C73       1.0  0.40334  0.57243  0.32876  1.0000
  C   C74       1.0  0.43894  0.57108  0.33597  1.0000
  C   C75       1.0  0.43821  0.60694  0.34114  1.0000
  C   C76       1.0  0.43847  0.61750  0.42264  1.0000
  C   C77       1.0  0.44371  0.64006  0.42406  1.0000
  C   C78       1.0  0.44831  0.65253  0.34359  1.0000
  C   C79       1.0  0.44893  0.64213  0.26261  1.0000
  C   C80       1.0  0.44398  0.61971  0.26147  1.0000
  C   C81       1.0  0.39000  0.56510  0.40679  1.0000
  C   C82       1.0  0.36737  0.55949  0.40461  1.0000
  C   C83       1.0  0.35735  0.56179  0.32518  1.0000
  C   C84       1.0  0.37075  0.56849  0.24652  1.0000
  C   C85       1.0  0.39324  0.57357  0.24809  1.0000
  C   C86       1.0  0.43436  0.55432  0.40038  1.0000
  C   C87       1.0  0.44581  0.54217  0.39957  1.0000
  C   C88       1.0  0.46304  0.54667  0.33659  1.0000
  C   C89       1.0  0.46772  0.56388  0.27323  1.0000
  C   C90       1.0  0.45572  0.57551  0.27187  1.0000
  H   H49       1.0  0.35854  0.55456  0.46333  1.0000
  H   H50       1.0  0.39705  0.56511  0.46711  1.0000
  H   H51       1.0  0.40269  0.57967  0.19128  1.0000
  H   H52       1.0  0.36479  0.57126  0.18796  1.0000
  H   H53       1.0  0.43330  0.60833  0.48052  1.0000
  H   H54       1.0  0.44224  0.64668  0.48339  1.0000
  H   H55       1.0  0.42226  0.55048  0.44770  1.0000
  H   H56       1.0  0.44098  0.52961  0.44561  1.0000
  H   H57       1.0  0.48029  0.56857  0.22737  1.0000
  H   H58       1.0  0.45968  0.58762  0.22449  1.0000
  H   H59       1.0  0.44285  0.61223  0.20099  1.0000
  H   H60       1.0  0.45191  0.65048  0.20288  1.0000
  N   N3        1.0  0.42279  0.84441  0.34530  1.0000
  C   C91       1.0  0.43314  0.83103  0.35235  1.0000
  C   C92       1.0  0.43525  0.86825  0.34425  1.0000
  C   C93       1.0  0.39918  0.83222  0.33261  1.0000
  C   C94       1.0  0.38463  0.82695  0.40659  1.0000
  C   C95       1.0  0.36200  0.81000  0.39981  1.0000
  C   C96       1.0  0.35335  0.79785  0.31900  1.0000
  C   C97       1.0  0.36777  0.80430  0.24360  1.0000
  C   C98       1.0  0.39036  0.82117  0.25034  1.0000
  C   C99       1.0  0.44537  0.82914  0.28048  1.0000
  C   C100      1.0  0.45162  0.81253  0.28145  1.0000
  C   C101      1.0  0.44557  0.79703  0.35336  1.0000
  C   C102      1.0  0.43413  0.79988  0.42679  1.0000
  C   C103      1.0  0.42827  0.81670  0.42683  1.0000
  C   C104      1.0  0.45041  0.88024  0.41384  1.0000
  C   C105      1.0  0.46303  0.90383  0.41237  1.0000
  C   C106      1.0  0.46047  0.91667  0.34352  1.0000
  C   C107      1.0  0.44479  0.90422  0.27491  1.0000
  C   C108      1.0  0.43283  0.88061  0.27414  1.0000
  H   H61       1.0  0.46007  0.81144  0.22709  1.0000
  H   H62       1.0  0.44871  0.83904  0.22502  1.0000
  H   H63       1.0  0.41896  0.81737  0.47887  1.0000
  H   H64       1.0  0.42858  0.78882  0.47915  1.0000
  H   H65       1.0  0.39091  0.83407  0.46771  1.0000
  H   H66       1.0  0.35239  0.80541  0.45664  1.0000
  H   H67       1.0  0.45275  0.87176  0.46510  1.0000
  H   H68       1.0  0.47445  0.91145  0.46258  1.0000
  H   H69       1.0  0.44144  0.91215  0.22451  1.0000
  H   H70       1.0  0.42181  0.87244  0.22307  1.0000
  H   H71       1.0  0.40077  0.82417  0.19680  1.0000
  H   H72       1.0  0.36226  0.79591  0.18405  1.0000
  N   N4        1.0  0.84721  0.42395  0.34303  1.0000
  C   C109      1.0  0.83430  0.40016  0.33748  1.0000
  C   C110      1.0  0.87114  0.43594  0.34324  1.0000
  C   C111      1.0  0.83425  0.43480  0.34850  1.0000
  C   C112      1.0  0.82277  0.43374  0.42834  1.0000
  C   C113      1.0  0.80525  0.43869  0.42801  1.0000
  C   C114      1.0  0.79865  0.44495  0.34800  1.0000
  C   C115      1.0  0.81114  0.44712  0.26931  1.0000
  C   C116      1.0  0.82839  0.44184  0.26925  1.0000
  C   C117      1.0  0.82841  0.38725  0.41673  1.0000
  C   C118      1.0  0.81119  0.36470  0.41661  1.0000
  C   C119      1.0  0.79874  0.35438  0.33787  1.0000
  C   C120      1.0  0.80536  0.36723  0.25785  1.0000
  C   C121      1.0  0.82285  0.38971  0.25759  1.0000
  C   C122      1.0  0.88341  0.43128  0.40695  1.0000
  C   C123      1.0  0.90702  0.44282  0.40598  1.0000
  C   C124      1.0  0.91968  0.46025  0.34364  1.0000
  C   C125      1.0  0.90706  0.46501  0.28108  1.0000
  C   C126      1.0  0.88345  0.45290  0.27970  1.0000
  H   H73       1.0  0.80714  0.35622  0.47622  1.0000
  H   H74       1.0  0.83552  0.39462  0.47653  1.0000
  H   H75       1.0  0.82602  0.39895  0.20023  1.0000
  H   H76       1.0  0.79645  0.36092  0.19988  1.0000
  H   H77       1.0  0.82595  0.42769  0.48573  1.0000
  H   H78       1.0  0.79633  0.43608  0.48594  1.0000
  H   H79       1.0  0.87523  0.41906  0.45384  1.0000
  H   H80       1.0  0.91478  0.43789  0.45142  1.0000
  H   H81       1.0  0.91486  0.47773  0.23576  1.0000
  H   H82       1.0  0.87530  0.45696  0.23270  1.0000
  H   H83       1.0  0.83553  0.44161  0.20947  1.0000
  H   H84       1.0  0.80709  0.45154  0.20969  1.0000
  N   N5        1.0  0.58344  0.42376  0.34162  1.0000
  C   C127      1.0  0.60723  0.43462  0.33619  1.0000
  C   C128      1.0  0.57152  0.43577  0.34127  1.0000
  C   C129      1.0  0.57256  0.39997  0.34717  1.0000
  C   C130      1.0  0.57362  0.38954  0.42703  1.0000
  C   C131      1.0  0.56871  0.36710  0.42679  1.0000
  C   C132      1.0  0.56250  0.35423  0.34681  1.0000
  C   C133      1.0  0.56032  0.36452  0.26808  1.0000
  C   C134      1.0  0.56554  0.38703  0.26796  1.0000
  C   C135      1.0  0.62014  0.44170  0.41545  1.0000
  C   C136      1.0  0.64267  0.44696  0.41548  1.0000
  C   C137      1.0  0.65300  0.44480  0.33685  1.0000
  C   C138      1.0  0.64015  0.43853  0.25680  1.0000
  C   C139      1.0  0.61769  0.43357  0.25641  1.0000
  C   C140      1.0  0.57593  0.45249  0.40571  1.0000
  C   C141      1.0  0.56451  0.46468  0.40413  1.0000
  C   C142      1.0  0.54748  0.46027  0.34029  1.0000
  C   C143      1.0  0.54295  0.44310  0.27697  1.0000
  C   C144      1.0  0.55493  0.43145  0.27637  1.0000
  H   H85       1.0  0.65114  0.45141  0.47511  1.0000
  H   H86       1.0  0.61276  0.44144  0.47522  1.0000
  H   H87       1.0  0.60845  0.42748  0.19905  1.0000
  H   H88       1.0  0.64647  0.43590  0.19891  1.0000
  H   H89       1.0  0.57965  0.39878  0.48441  1.0000
  H   H90       1.0  0.57133  0.36080  0.48477  1.0000
  H   H91       1.0  0.58788  0.45628  0.45362  1.0000
  H   H92       1.0  0.56923  0.47720  0.45027  1.0000
  H   H93       1.0  0.53051  0.43845  0.23053  1.0000
  H   H94       1.0  0.55108  0.41942  0.22878  1.0000
  H   H95       1.0  0.56577  0.39438  0.20814  1.0000
  H   H96       1.0  0.55590  0.35603  0.20848  1.0000
  N   N6        1.0  0.58374  0.16016  0.34263  1.0000
  C   C145      1.0  0.57290  0.17312  0.33680  1.0000
  C   C146      1.0  0.57176  0.13622  0.34279  1.0000
  C   C147      1.0  0.60753  0.17309  0.34840  1.0000
  C   C148      1.0  0.61792  0.18457  0.42832  1.0000
  C   C149      1.0  0.64037  0.20209  0.42815  1.0000
  C   C150      1.0  0.65328  0.20870  0.34824  1.0000
  C   C151      1.0  0.64301  0.19622  0.26950  1.0000
  C   C152      1.0  0.62049  0.17894  0.26928  1.0000
  C   C153      1.0  0.56582  0.17901  0.41589  1.0000
  C   C154      1.0  0.56057  0.19629  0.41561  1.0000
  C   C155      1.0  0.56278  0.20875  0.33682  1.0000
  C   C156      1.0  0.56904  0.20210  0.25693  1.0000
  C   C157      1.0  0.57398  0.18458  0.25686  1.0000
  C   C158      1.0  0.55465  0.12396  0.40585  1.0000
  C   C159      1.0  0.54253  0.10035  0.40473  1.0000
  C   C160      1.0  0.54743  0.08766  0.34308  1.0000
  C   C161      1.0  0.56502  0.10028  0.28126  1.0000
  C   C162      1.0  0.57655  0.12389  0.27988  1.0000
  H   H97       1.0  0.55613  0.20036  0.47514  1.0000
  H   H98       1.0  0.56606  0.17192  0.47578  1.0000
  H   H99       1.0  0.58009  0.18140  0.19963  1.0000
  H   H100      1.0  0.57171  0.21103  0.19898  1.0000
  H   H101      1.0  0.60864  0.18140  0.48555  1.0000
  H   H102      1.0  0.64666  0.21101  0.48610  1.0000
  H   H103      1.0  0.55048  0.13215  0.45223  1.0000
  H   H104      1.0  0.52970  0.09262  0.44961  1.0000
  H   H105      1.0  0.57006  0.09248  0.23646  1.0000
  H   H106      1.0  0.58890  0.13202  0.23341  1.0000
  H   H107      1.0  0.61315  0.17182  0.20945  1.0000
  H   H108      1.0  0.65153  0.20025  0.20999  1.0000
  C   C163      1.0  0.94401  0.47242  0.34385  1.0000
  C   C164      1.0  0.95663  0.47455  0.42215  1.0000
  C   C165      1.0  0.98025  0.48605  0.42197  1.0000
  C   C166      1.0  0.99297  0.49689  0.34426  1.0000
  C   C167      1.0  0.02993  0.51842  0.42387  1.0000
  C   C168      1.0  0.05355  0.52990  0.42433  1.0000
  H   H109      1.0  0.02214  0.51730  0.48345  1.0000
  H   H110      1.0  0.06132  0.53541  0.48490  1.0000
  H   H111      1.0  0.94882  0.46792  0.48177  1.0000
  H   H112      1.0  0.98799  0.48606  0.48041  1.0000
  C   C169      1.0  0.53546  0.47257  0.33973  1.0000
  C   C170      1.0  0.53275  0.48260  0.41828  1.0000
  C   C171      1.0  0.52140  0.49486  0.41744  1.0000
  C   C172      1.0  0.51132  0.49737  0.33860  1.0000
  C   C173      1.0  0.48909  0.51226  0.41634  1.0000
  C   C174      1.0  0.47771  0.52450  0.41616  1.0000
  H   H113      1.0  0.48948  0.50498  0.47543  1.0000
  H   H114      1.0  0.47151  0.52619  0.47604  1.0000
  H   H115      1.0  0.53884  0.48095  0.47853  1.0000
  H   H116      1.0  0.52091  0.50221  0.47623  1.0000
  C   C175      1.0  0.53521  0.06332  0.34318  1.0000
  C   C176      1.0  0.52426  0.05068  0.42090  1.0000
  C   C177      1.0  0.51201  0.02707  0.42052  1.0000
  C   C178      1.0  0.51047  0.01433  0.34328  1.0000
  C   C179      1.0  0.49398  0.97726  0.42305  1.0000
  C   C180      1.0  0.48157  0.95365  0.42330  1.0000
  H   H117      1.0  0.50018  0.98498  0.48319  1.0000
  H   H118      1.0  0.47867  0.94587  0.48414  1.0000
  H   H119      1.0  0.52515  0.05847  0.48028  1.0000
  H   H120      1.0  0.50395  0.01936  0.47846  1.0000
  C   C181      1.0  0.25459  0.54409  0.38661  1.0000
  C   C182      1.0  0.23461  0.54498  0.38718  1.0000
  H   H121      1.0  0.25665  0.53436  0.43321  1.0000
  H   H122      1.0  0.22273  0.53563  0.43400  1.0000
  C   C183      1.0  0.29221  0.55639  0.32444  1.0000
  C   C184      1.0  0.33524  0.55912  0.32581  1.0000
  C   C185      1.0  0.32723  0.56561  0.40123  1.0000
  C   C186      1.0  0.30606  0.56403  0.40112  1.0000
  H   H123      1.0  0.33706  0.57238  0.45671  1.0000
  H   H124      1.0  0.30128  0.56945  0.45628  1.0000
  C   C187      1.0  0.46522  0.71219  0.40156  1.0000
  C   C188      1.0  0.46428  0.69128  0.40191  1.0000
  H   H125      1.0  0.47624  0.72431  0.44428  1.0000
  H   H126      1.0  0.47443  0.68887  0.44506  1.0000
  C   C189      1.0  0.45181  0.73759  0.34491  1.0000
  C   C190      1.0  0.44916  0.77817  0.34988  1.0000
  C   C191      1.0  0.45316  0.76910  0.42843  1.0000
  C   C192      1.0  0.45431  0.74927  0.42615  1.0000
  H   H127      1.0  0.45499  0.77670  0.48923  1.0000
  H   H128      1.0  0.45615  0.74302  0.48573  1.0000
  C   C193      1.0  0.29149  0.75803  0.35352  1.0000
  C   C194      1.0  0.31258  0.77779  0.35398  1.0000
  H   H129      1.0  0.27813  0.75859  0.38049  1.0000
  H   H130      1.0  0.31385  0.79198  0.38155  1.0000
  C   C195      1.0  0.26745  0.71743  0.31762  1.0000
  C   C196      1.0  0.22689  0.67450  0.32680  1.0000
  C   C197      1.0  0.23370  0.68996  0.39884  1.0000
  C   C198      1.0  0.25352  0.71092  0.39445  1.0000
  H   H131      1.0  0.22446  0.68593  0.45657  1.0000
  H   H132      1.0  0.25819  0.72097  0.45004  1.0000
  C   C199      1.0  0.75321  0.45756  0.41625  1.0000
  C   C200      1.0  0.77319  0.45667  0.41724  1.0000
  H   H133      1.0  0.74965  0.46451  0.46994  1.0000
  H   H134      1.0  0.78352  0.46314  0.47164  1.0000
  C   C201      1.0  0.71764  0.44922  0.34249  1.0000
  C   C202      1.0  0.67488  0.44706  0.33975  1.0000
  C   C203      1.0  0.68159  0.43877  0.41344  1.0000
  C   C204      1.0  0.70258  0.43997  0.41520  1.0000
  H   H135      1.0  0.67091  0.43097  0.46586  1.0000
  H   H136      1.0  0.70640  0.43319  0.46877  1.0000
  C   C205      1.0  0.54998  0.29621  0.41538  1.0000
  C   C206      1.0  0.55084  0.31706  0.41624  1.0000
  H   H137      1.0  0.54305  0.28572  0.46912  1.0000
  H   H138      1.0  0.54436  0.32093  0.47060  1.0000
  C   C207      1.0  0.55837  0.26899  0.34182  1.0000
  C   C208      1.0  0.56054  0.22839  0.33945  1.0000
  C   C209      1.0  0.56881  0.24341  0.41309  1.0000
  C   C210      1.0  0.56758  0.26319  0.41469  1.0000
  H   H139      1.0  0.57657  0.24054  0.46565  1.0000
  H   H140      1.0  0.57434  0.27379  0.46823  1.0000
  C   C211      1.0  0.71130  0.25415  0.41685  1.0000
  C   C212      1.0  0.69044  0.23416  0.41774  1.0000
  H   H141      1.0  0.72179  0.25771  0.47062  1.0000
  H   H142      1.0  0.68655  0.22383  0.47215  1.0000
  C   C213      1.0  0.73855  0.28971  0.34318  1.0000
  C   C214      1.0  0.77913  0.33249  0.34065  1.0000
  C   C215      1.0  0.76409  0.32577  0.41422  1.0000
  C   C216      1.0  0.74432  0.30477  0.41589  1.0000
  H   H143      1.0  0.76695  0.33645  0.46662  1.0000
  H   H144      1.0  0.73370  0.30095  0.46936  1.0000
