data_image0
_chemical_formula_structural       C4HC3NHNO2C4HC3NHNO2C4HC3NHNO2CNC2H2NO2CNC2H2NO2CNC2H2NO2CNCNCNCNCNCNCNCNCNCNCNCNCNC2H2NO2CNC2H2NO2CNC2H2NO2C4HC3NHNO2C4HC3NHNO2C4HC3NHNO2
_chemical_formula_sum              "C72 H24 N36 O24"
_cell_length_a       34.0612
_cell_length_b       34.0635
_cell_length_c       14.8939
_cell_angle_alpha    90
_cell_angle_beta     90
_cell_angle_gamma    120.007

_space_group_name_H-M_alt    "P 1"
_space_group_IT_number       1

loop_
  _space_group_symop_operation_xyz
  'x, y, z'

loop_
  _atom_site_type_symbol
  _atom_site_label
  _atom_site_symmetry_multiplicity
  _atom_site_fract_x
  _atom_site_fract_y
  _atom_site_fract_z
  _atom_site_occupancy
  C   C1        1.0  0.09696  0.04887  0.34471  1.0000
  C   C2        1.0  0.19414  0.09550  0.34297  1.0000
  C   C3        1.0  0.17053  0.11536  0.30119  1.0000
  C   C4        1.0  0.12238  0.09194  0.30401  1.0000
  H   H1        1.0  0.10572  0.10621  0.27301  1.0000
  C   C5        1.0  0.24285  0.11591  0.34696  1.0000
  C   C6        1.0  0.34031  0.16379  0.35084  1.0000
  C   C7        1.0  0.31492  0.18562  0.33557  1.0000
  N   N1        1.0  0.26894  0.16149  0.33423  1.0000
  H   H2        1.0  0.33043  0.21970  0.32393  1.0000
  N   N2        1.0  0.19434  0.15695  0.25427  1.0000
  O   O1        1.0  0.18680  0.18663  0.28658  1.0000
  O   O2        1.0  0.18435  0.15225  0.17222  1.0000
  C   C8        1.0  0.95491  0.04995  0.34469  1.0000
  C   C9        1.0  0.90829  0.10049  0.34293  1.0000
  C   C10       1.0  0.88843  0.05703  0.30116  1.0000
  C   C11       1.0  0.91184  0.03229  0.30401  1.0000
  H   H3        1.0  0.89758  0.00137  0.27295  1.0000
  C   C12       1.0  0.88789  0.12879  0.34690  1.0000
  C   C13       1.0  0.84000  0.17836  0.35076  1.0000
  C   C14       1.0  0.81817  0.13113  0.33553  1.0000
  N   N3        1.0  0.84230  0.10929  0.33420  1.0000
  H   H4        1.0  0.78409  0.11256  0.32391  1.0000
  N   N4        1.0  0.84684  0.03924  0.25421  1.0000
  O   O3        1.0  0.81715  0.00202  0.28651  1.0000
  O   O4        1.0  0.85155  0.03395  0.17217  1.0000
  C   C15       1.0  0.95382  0.90682  0.34466  1.0000
  C   C16       1.0  0.90329  0.80965  0.34288  1.0000
  C   C17       1.0  0.94676  0.83327  0.30116  1.0000
  C   C18       1.0  0.97150  0.88142  0.30403  1.0000
  H   H5        1.0  0.00244  0.89809  0.27304  1.0000
  C   C19       1.0  0.87499  0.76094  0.34684  1.0000
  C   C20       1.0  0.82544  0.66349  0.35066  1.0000
  C   C21       1.0  0.87268  0.68890  0.33552  1.0000
  N   N5        1.0  0.89451  0.73487  0.33419  1.0000
  H   H6        1.0  0.89126  0.67341  0.32392  1.0000
  N   N6        1.0  0.96459  0.80948  0.25429  1.0000
  O   O5        1.0  0.00180  0.81703  0.28668  1.0000
  O   O6        1.0  0.96991  0.81949  0.17225  1.0000
  C   C22       1.0  0.49838  0.15435  0.27387  1.0000
  N   N7        1.0  0.53719  0.15243  0.27141  1.0000
  C   C23       1.0  0.63743  0.19430  0.26067  1.0000
  C   C24       1.0  0.68302  0.20421  0.25952  1.0000
  H   H7        1.0  0.70492  0.22780  0.21467  1.0000
  H   H8        1.0  0.48263  0.15287  0.21451  1.0000
  N   N8        1.0  0.62266  0.21678  0.20120  1.0000
  O   O7        1.0  0.62627  0.20803  0.12067  1.0000
  O   O8        1.0  0.64448  0.25905  0.21202  1.0000
  C   C25       1.0  0.84974  0.34605  0.27411  1.0000
  N   N9        1.0  0.85167  0.38677  0.27164  1.0000
  C   C26       1.0  0.80969  0.44507  0.26055  1.0000
  C   C27       1.0  0.79973  0.48070  0.25940  1.0000
  H   H9        1.0  0.77630  0.47911  0.21421  1.0000
  H   H10       1.0  0.85145  0.33188  0.21477  1.0000
  N   N10       1.0  0.78737  0.40788  0.20087  1.0000
  O   O9        1.0  0.79628  0.42036  0.12042  1.0000
  O   O10       1.0  0.74507  0.38738  0.21133  1.0000
  C   C28       1.0  0.65783  0.50540  0.27349  1.0000
  N   N11       1.0  0.61707  0.46663  0.27114  1.0000
  C   C29       1.0  0.55884  0.36634  0.26060  1.0000
  C   C30       1.0  0.52318  0.32075  0.25950  1.0000
  H   H11       1.0  0.52484  0.29887  0.21454  1.0000
  H   H12       1.0  0.67201  0.52139  0.21424  1.0000
  N   N12       1.0  0.59608  0.38114  0.20106  1.0000
  O   O11       1.0  0.58367  0.37751  0.12055  1.0000
  O   O12       1.0  0.61657  0.35936  0.21181  1.0000
  C   C31       1.0  0.97827  0.95515  0.34547  1.0000
  N   N13       1.0  0.95629  0.97933  0.34539  1.0000
  C   C32       1.0  0.97879  0.02550  0.34548  1.0000
  N   N14       1.0  0.02496  0.04749  0.34542  1.0000
  C   C33       1.0  0.04863  0.02499  0.34550  1.0000
  N   N15       1.0  0.02444  0.97883  0.34541  1.0000
  C   C34       1.0  0.45961  0.25663  0.33419  1.0000
  N   N16       1.0  0.41351  0.23400  0.33970  1.0000
  C   C35       1.0  0.38892  0.18781  0.34912  1.0000
  N   N17       1.0  0.41232  0.16489  0.35396  1.0000
  C   C36       1.0  0.45832  0.18681  0.35037  1.0000
  N   N18       1.0  0.48099  0.23228  0.33991  1.0000
  C   C37       1.0  0.74714  0.20477  0.33428  1.0000
  N   N19       1.0  0.76979  0.18132  0.33972  1.0000
  C   C38       1.0  0.81598  0.20293  0.34912  1.0000
  N   N20       1.0  0.83890  0.24927  0.35397  1.0000
  C   C39       1.0  0.81696  0.27332  0.35051  1.0000
  N   N21       1.0  0.77149  0.25051  0.34003  1.0000
  C   C40       1.0  0.79907  0.54423  0.33404  1.0000
  N   N22       1.0  0.82250  0.59033  0.33960  1.0000
  C   C41       1.0  0.80087  0.61488  0.34892  1.0000
  N   N23       1.0  0.75453  0.59144  0.35362  1.0000
  C   C42       1.0  0.73049  0.54546  0.35000  1.0000
  N   N24       1.0  0.75331  0.52281  0.33962  1.0000
  C   C43       1.0  0.12203  0.03050  0.38354  1.0000
  N   N25       1.0  0.16799  0.05416  0.38184  1.0000
  C   C44       1.0  0.26652  0.09207  0.36459  1.0000
  C   C45       1.0  0.31467  0.11644  0.36582  1.0000
  H   H13       1.0  0.33108  0.09870  0.37765  1.0000
  H   H14       1.0  0.10627  0.99976  0.41515  1.0000
  N   N26       1.0  0.24282  0.04461  0.37891  1.0000
  O   O13       1.0  0.25069  0.03470  0.45558  1.0000
  O   O14       1.0  0.25251  0.02403  0.32086  1.0000
  C   C46       1.0  0.97328  0.09339  0.38355  1.0000
  N   N27       1.0  0.94963  0.11569  0.38181  1.0000
  C   C47       1.0  0.91173  0.17630  0.36451  1.0000
  C   C48       1.0  0.88736  0.20008  0.36575  1.0000
  H   H15       1.0  0.90510  0.23423  0.37757  1.0000
  H   H16       1.0  0.00404  0.10838  0.41510  1.0000
  N   N28       1.0  0.95919  0.20008  0.37882  1.0000
  O   O15       1.0  0.96911  0.21787  0.45549  1.0000
  O   O16       1.0  0.97978  0.23035  0.32077  1.0000
  C   C49       1.0  0.91035  0.88174  0.38341  1.0000
  N   N29       1.0  0.88806  0.83578  0.38169  1.0000
  C   C50       1.0  0.82747  0.73725  0.36437  1.0000
  C   C51       1.0  0.80369  0.68910  0.36558  1.0000
  H   H17       1.0  0.76953  0.67267  0.37732  1.0000
  H   H18       1.0  0.89535  0.89749  0.41498  1.0000
  N   N30       1.0  0.80368  0.76092  0.37861  1.0000
  O   O17       1.0  0.78585  0.75304  0.45524  1.0000
  O   O18       1.0  0.77343  0.75123  0.32049  1.0000
  C   C52       1.0  0.48501  0.16594  0.35454  1.0000
  C   C53       1.0  0.56425  0.15882  0.34367  1.0000
  C   C54       1.0  0.55128  0.16847  0.42783  1.0000
  C   C55       1.0  0.51171  0.17227  0.43157  1.0000
  H   H19       1.0  0.50471  0.18372  0.48961  1.0000
  C   C56       1.0  0.60813  0.16457  0.32811  1.0000
  C   C57       1.0  0.69975  0.18534  0.32297  1.0000
  C   C58       1.0  0.66860  0.15438  0.38558  1.0000
  N   N31       1.0  0.62529  0.14639  0.38713  1.0000
  H   H20       1.0  0.67912  0.14148  0.43605  1.0000
  N   N32       1.0  0.57992  0.17882  0.50360  1.0000
  O   O19       1.0  0.55945  0.15247  0.56776  1.0000
  O   O20       1.0  0.59492  0.21892  0.52968  1.0000
  C   C59       1.0  0.83783  0.32089  0.35452  1.0000
  C   C60       1.0  0.84502  0.40731  0.34382  1.0000
  C   C61       1.0  0.83504  0.38453  0.42782  1.0000
  C   C62       1.0  0.83111  0.34111  0.43139  1.0000
  H   H21       1.0  0.81960  0.32262  0.48938  1.0000
  C   C63       1.0  0.83930  0.44545  0.32822  1.0000
  C   C64       1.0  0.81851  0.51628  0.32291  1.0000
  C   C65       1.0  0.84924  0.51596  0.38591  1.0000
  N   N33       1.0  0.85734  0.48071  0.38742  1.0000
  H   H22       1.0  0.86223  0.53948  0.43622  1.0000
  N   N34       1.0  0.82445  0.40268  0.50350  1.0000
  O   O21       1.0  0.85055  0.40838  0.56801  1.0000
  O   O22       1.0  0.78424  0.37755  0.52898  1.0000
  C   C66       1.0  0.68289  0.51872  0.35401  1.0000
  C   C67       1.0  0.59657  0.43953  0.34346  1.0000
  C   C68       1.0  0.61933  0.45240  0.42750  1.0000
  C   C69       1.0  0.66273  0.49194  0.43106  1.0000
  H   H23       1.0  0.68126  0.49899  0.48901  1.0000
  C   C70       1.0  0.55841  0.39566  0.32799  1.0000
  C   C71       1.0  0.48759  0.30403  0.32297  1.0000
  C   C72       1.0  0.48785  0.33515  0.38570  1.0000
  N   N35       1.0  0.52310  0.37850  0.38709  1.0000
  H   H24       1.0  0.46429  0.32466  0.43593  1.0000
  N   N36       1.0  0.60115  0.42371  0.50323  1.0000
  O   O23       1.0  0.59541  0.44414  0.56762  1.0000
  O   O24       1.0  0.62630  0.40868  0.52889  1.0000
