data_image0
_chemical_formula_structural       C18H17C4NC2NH2C2NC2NH2C3NC3NC5NC4NC35H25C2H2C4H2
_chemical_formula_sum              "C84 H50 N8"
_cell_length_a       30.0477
_cell_length_b       30.0475
_cell_length_c       14.8863
_cell_angle_alpha    90
_cell_angle_beta     90
_cell_angle_gamma    89.9285

_space_group_name_H-M_alt    "P 1"
_space_group_IT_number       1

loop_
  _space_group_symop_operation_xyz
  'x, y, z'

loop_
  _atom_site_type_symbol
  _atom_site_label
  _atom_site_symmetry_multiplicity
  _atom_site_fract_x
  _atom_site_fract_y
  _atom_site_fract_z
  _atom_site_occupancy
  C   C1        1.0  0.91182  0.96073  0.34377  1.0000
  C   C2        1.0  0.01507  0.76756  0.26337  1.0000
  C   C3        1.0  0.01492  0.81448  0.26352  1.0000
  C   C4        1.0  0.03945  0.67047  0.29388  1.0000
  C   C5        1.0  0.03908  0.62356  0.29246  1.0000
  C   C6        1.0  0.00619  0.59910  0.33921  1.0000
  C   C7        1.0  0.77140  0.99564  0.26421  1.0000
  C   C8        1.0  0.81831  0.99560  0.26402  1.0000
  C   C9        1.0  0.62763  0.97134  0.29499  1.0000
  C   C10       1.0  0.67454  0.97109  0.29608  1.0000
  C   C11       1.0  0.99913  0.19222  0.26379  1.0000
  C   C12       1.0  0.99837  0.23913  0.26375  1.0000
  C   C13       1.0  0.97211  0.38268  0.29402  1.0000
  C   C14       1.0  0.97245  0.33578  0.29537  1.0000
  C   C15       1.0  0.19635  0.01137  0.26415  1.0000
  C   C16       1.0  0.24327  0.01189  0.26444  1.0000
  C   C17       1.0  0.33975  0.03786  0.29647  1.0000
  C   C18       1.0  0.38665  0.03823  0.29539  1.0000
  H   H1        1.0  0.40252  0.06301  0.26083  1.0000
  H   H2        1.0  0.32323  0.06254  0.26277  1.0000
  H   H3        1.0  0.25937  0.01716  0.20483  1.0000
  H   H4        1.0  0.17983  0.01686  0.20503  1.0000
  H   H5        1.0  0.99369  0.17558  0.20481  1.0000
  H   H6        1.0  0.99295  0.25512  0.20407  1.0000
  H   H7        1.0  0.91722  0.85333  0.34318  1.0000
  H   H8        1.0  0.83479  0.98993  0.20493  1.0000
  H   H9        1.0  0.75526  0.99051  0.20459  1.0000
  H   H10       1.0  0.69073  0.94613  0.26257  1.0000
  H   H11       1.0  0.61144  0.94672  0.26057  1.0000
  H   H12       1.0  0.02025  0.83108  0.20445  1.0000
  H   H13       1.0  0.01996  0.75155  0.20352  1.0000
  H   H14       1.0  0.06351  0.60731  0.25748  1.0000
  H   H15       1.0  0.06427  0.68660  0.25998  1.0000
  H   H16       1.0  0.94764  0.31928  0.26215  1.0000
  H   H17       1.0  0.94721  0.39858  0.25972  1.0000
  C   C19       1.0  0.00546  0.55139  0.33682  1.0000
  C   C20       1.0  0.00498  0.52705  0.25507  1.0000
  C   C21       1.0  0.00481  0.47956  0.25522  1.0000
  C   C22       1.0  0.00517  0.45533  0.33711  1.0000
  N   N1        1.0  0.00500  0.45837  0.17426  1.0000
  C   C23       1.0  0.00453  0.47986  0.09421  1.0000
  C   C24       1.0  0.00373  0.52654  0.09410  1.0000
  N   N2        1.0  0.00404  0.54814  0.17403  1.0000
  H   H18       1.0  0.00453  0.46228  0.03551  1.0000
  H   H19       1.0  0.00318  0.54405  0.03532  1.0000
  C   C25       1.0  0.48357  0.00536  0.25727  1.0000
  C   C26       1.0  0.53106  0.00523  0.25716  1.0000
  N   N3        1.0  0.55215  0.00586  0.17611  1.0000
  C   C27       1.0  0.53057  0.00583  0.09616  1.0000
  C   C28       1.0  0.48389  0.00499  0.09626  1.0000
  N   N4        1.0  0.46240  0.00482  0.17631  1.0000
  H   H20       1.0  0.54808  0.00615  0.03738  1.0000
  H   H21       1.0  0.46632  0.00473  0.03755  1.0000
  C   C29       1.0  0.12276  0.92058  0.34373  1.0000
  C   C30       1.0  0.09029  0.88807  0.34401  1.0000
  C   C31       1.0  0.04866  0.90887  0.34379  1.0000
  N   N5        1.0  0.05761  0.95318  0.34407  1.0000
  C   C32       1.0  0.10191  0.96218  0.34420  1.0000
  C   C33       1.0  0.12455  0.00388  0.34420  1.0000
  C   C34       1.0  0.10288  0.04603  0.34411  1.0000
  N   N6        1.0  0.05865  0.05475  0.34418  1.0000
  C   C35       1.0  0.04989  0.09896  0.34427  1.0000
  C   C36       1.0  0.09132  0.12000  0.34398  1.0000
  C   C37       1.0  0.12386  0.08750  0.34443  1.0000
  C   C38       1.0  0.00771  0.12057  0.34408  1.0000
  C   C39       1.0  0.96605  0.09787  0.34392  1.0000
  N   N7        1.0  0.95711  0.05356  0.34404  1.0000
  C   C40       1.0  0.91281  0.04457  0.34414  1.0000
  C   C41       1.0  0.89195  0.08617  0.34379  1.0000
  C   C42       1.0  0.92442  0.11867  0.34420  1.0000
  C   C43       1.0  0.89016  0.00288  0.34400  1.0000
  N   N8        1.0  0.95604  0.95201  0.34394  1.0000
  C   C44       1.0  0.96481  0.90780  0.34398  1.0000
  C   C45       1.0  0.92337  0.88677  0.34355  1.0000
  C   C46       1.0  0.89083  0.91927  0.34396  1.0000
  C   C47       1.0  0.00698  0.88618  0.34389  1.0000
  C   C48       1.0  0.00736  0.83847  0.34373  1.0000
  C   C49       1.0  0.99977  0.81420  0.42357  1.0000
  C   C50       1.0  0.99957  0.76728  0.42301  1.0000
  C   C51       1.0  0.00728  0.74285  0.34299  1.0000
  C   C52       1.0  0.00711  0.69500  0.34244  1.0000
  C   C53       1.0  0.97415  0.62344  0.38868  1.0000
  C   C54       1.0  0.97459  0.67037  0.39015  1.0000
  C   C55       1.0  0.84245  0.00325  0.34399  1.0000
  C   C56       1.0  0.81833  0.01118  0.42391  1.0000
  C   C57       1.0  0.77141  0.01157  0.42369  1.0000
  C   C58       1.0  0.74684  0.00365  0.34396  1.0000
  C   C59       1.0  0.69900  0.00371  0.34383  1.0000
  C   C60       1.0  0.67430  0.03639  0.39113  1.0000
  C   C61       1.0  0.62736  0.03671  0.39002  1.0000
  C   C62       1.0  0.60311  0.00440  0.34125  1.0000
  C   C63       1.0  0.00726  0.16829  0.34385  1.0000
  C   C64       1.0  0.00609  0.26388  0.34334  1.0000
  C   C65       1.0  0.01450  0.23953  0.42316  1.0000
  C   C66       1.0  0.01486  0.19261  0.42363  1.0000
  C   C67       1.0  0.00549  0.31172  0.34295  1.0000
  C   C68       1.0  0.03798  0.33681  0.38976  1.0000
  C   C69       1.0  0.03771  0.38374  0.38833  1.0000
  C   C70       1.0  0.00497  0.40761  0.33979  1.0000
  C   C71       1.0  0.17226  0.00357  0.34412  1.0000
  C   C72       1.0  0.19643  0.99601  0.42412  1.0000
  C   C73       1.0  0.24335  0.99617  0.42400  1.0000
  C   C74       1.0  0.26787  0.00432  0.34430  1.0000
  C   C75       1.0  0.31571  0.00495  0.34431  1.0000
  C   C76       1.0  0.41162  0.00553  0.34177  1.0000
  C   C77       1.0  0.38777  0.97297  0.39067  1.0000
  C   C78       1.0  0.34084  0.97268  0.39184  1.0000
  H   H22       1.0  0.40448  0.94840  0.42438  1.0000
  H   H23       1.0  0.32511  0.94773  0.42613  1.0000
  H   H24       1.0  0.25952  0.99127  0.48368  1.0000
  H   H25       1.0  0.17995  0.99052  0.48326  1.0000
  H   H26       1.0  0.15618  0.91422  0.34342  1.0000
  H   H27       1.0  0.09669  0.85466  0.34420  1.0000
  H   H28       1.0  0.03499  0.97577  0.34421  1.0000
  H   H29       1.0  0.97973  0.03097  0.34406  1.0000
  H   H30       1.0  0.15729  0.09369  0.34473  1.0000
  H   H31       1.0  0.09746  0.15344  0.34366  1.0000
  H   H32       1.0  0.02068  0.17625  0.48279  1.0000
  H   H33       1.0  0.01953  0.25582  0.48265  1.0000
  H   H34       1.0  0.91800  0.15208  0.34453  1.0000
  H   H35       1.0  0.85854  0.09255  0.34345  1.0000
  H   H36       1.0  0.85740  0.91308  0.34420  1.0000
  H   H37       1.0  0.83484  0.01666  0.48302  1.0000
  H   H38       1.0  0.75527  0.01680  0.48330  1.0000
  H   H39       1.0  0.61097  0.06149  0.42371  1.0000
  H   H40       1.0  0.69035  0.06114  0.42542  1.0000
  H   H41       1.0  0.95001  0.68646  0.42494  1.0000
  H   H42       1.0  0.94950  0.60711  0.42276  1.0000
  H   H43       1.0  0.99447  0.75103  0.48253  1.0000
  H   H44       1.0  0.99427  0.83060  0.48282  1.0000
  H   H45       1.0  0.06302  0.32106  0.42385  1.0000
  H   H46       1.0  0.06240  0.40041  0.42160  1.0000
  C   C79       1.0  0.00575  0.47998  0.41810  1.0000
  C   C80       1.0  0.00554  0.52687  0.41798  1.0000
  H   H47       1.0  0.00628  0.54308  0.47846  1.0000
  H   H48       1.0  0.00570  0.46386  0.47870  1.0000
  C   C81       1.0  0.45934  0.00531  0.33916  1.0000
  C   C82       1.0  0.55539  0.00509  0.33892  1.0000
  C   C83       1.0  0.53086  0.00530  0.42006  1.0000
  C   C84       1.0  0.48398  0.00507  0.42018  1.0000
  H   H49       1.0  0.46785  0.00534  0.48075  1.0000
  H   H50       1.0  0.54708  0.00484  0.48055  1.0000
