data_image0
_chemical_formula_structural       C14H12C7NC12H12C2NC3NC3NC15H14C4H4C4H4C4H4C4H4C4H4C4H4C3NC2NC5NC3NC17H14CNC2NC4NC18H14C2NC19H12C4HC4H2NO2C4HC4H2NO2C4HC4H2NO2C4HC4H2NO2C4HC4H2NO2C4HC4H2NO2
_chemical_formula_sum              "C204 H120 N18 O12"
_cell_length_a       50.3376
_cell_length_b       50.3374
_cell_length_c       14.966
_cell_angle_alpha    90.0308
_cell_angle_beta     89.9692
_cell_angle_gamma    120

_space_group_name_H-M_alt    "P 1"
_space_group_IT_number       1

loop_
  _space_group_symop_operation_xyz
  'x, y, z'

loop_
  _atom_site_type_symbol
  _atom_site_label
  _atom_site_symmetry_multiplicity
  _atom_site_fract_x
  _atom_site_fract_y
  _atom_site_fract_z
  _atom_site_occupancy
  C   C1        1.0  0.95974  0.54087  0.34266  1.0000
  C   C2        1.0  0.08438  0.53219  0.33818  1.0000
  C   C3        1.0  0.09417  0.56398  0.34283  1.0000
  C   C4        1.0  0.12431  0.61516  0.35077  1.0000
  C   C5        1.0  0.12447  0.58785  0.35083  1.0000
  C   C6        1.0  0.14278  0.70773  0.25709  1.0000
  C   C7        1.0  0.11803  0.67741  0.25805  1.0000
  C   C8        1.0  0.10763  0.52381  0.33656  1.0000
  C   C9        1.0  0.15099  0.52404  0.26155  1.0000
  C   C10       1.0  0.12636  0.52979  0.26040  1.0000
  C   C11       1.0  0.93598  0.42739  0.25824  1.0000
  C   C12       1.0  0.91130  0.39703  0.25730  1.0000
  C   C13       1.0  0.92757  0.57504  0.26017  1.0000
  C   C14       1.0  0.90289  0.58070  0.26133  1.0000
  H   H1        1.0  0.88901  0.57455  0.20629  1.0000
  H   H2        1.0  0.93111  0.56543  0.20438  1.0000
  H   H3        1.0  0.99745  0.63769  0.31902  1.0000
  H   H4        1.0  0.94525  0.43814  0.19884  1.0000
  H   H5        1.0  0.90368  0.38639  0.19684  1.0000
  H   H6        1.0  0.05646  0.46719  0.31861  1.0000
  H   H7        1.0  0.14350  0.63634  0.35523  1.0000
  H   H8        1.0  0.14381  0.58614  0.35565  1.0000
  H   H9        1.0  0.12288  0.53943  0.20462  1.0000
  H   H10       1.0  0.16487  0.53012  0.20649  1.0000
  H   H11       1.0  0.10877  0.66665  0.19866  1.0000
  H   H12       1.0  0.15048  0.71833  0.19662  1.0000
  C   C15       1.0  0.45126  0.46002  0.32416  1.0000
  C   C16       1.0  0.45645  0.50699  0.33468  1.0000
  C   C17       1.0  0.53805  0.49584  0.34244  1.0000
  C   C18       1.0  0.59653  0.59600  0.33493  1.0000
  C   C19       1.0  0.60173  0.64297  0.32460  1.0000
  C   C20       1.0  0.54672  0.62916  0.33781  1.0000
  C   C21       1.0  0.51492  0.60715  0.34241  1.0000
  N   N1        1.0  0.50147  0.57624  0.33867  1.0000
  C   C22       1.0  0.46375  0.58610  0.35055  1.0000
  C   C23       1.0  0.49106  0.61358  0.35050  1.0000
  C   C24       1.0  0.37117  0.51198  0.25688  1.0000
  C   C25       1.0  0.40148  0.51754  0.25778  1.0000
  C   C26       1.0  0.55509  0.66078  0.33620  1.0000
  C   C27       1.0  0.56715  0.72273  0.33785  1.0000
  C   C28       1.0  0.55490  0.70390  0.26116  1.0000
  C   C29       1.0  0.54911  0.67351  0.26005  1.0000
  C   C30       1.0  0.65154  0.58553  0.25786  1.0000
  C   C31       1.0  0.68190  0.59121  0.25700  1.0000
  C   C32       1.0  0.50391  0.42949  0.25988  1.0000
  C   C33       1.0  0.49825  0.39915  0.26106  1.0000
  H   H13       1.0  0.50440  0.39140  0.20603  1.0000
  H   H14       1.0  0.51353  0.44262  0.20410  1.0000
  H   H15       1.0  0.44126  0.43674  0.31818  1.0000
  H   H16       1.0  0.64081  0.58404  0.19845  1.0000
  H   H17       1.0  0.69256  0.59421  0.19657  1.0000
  H   H18       1.0  0.61173  0.66625  0.31853  1.0000
  H   H19       1.0  0.44257  0.58412  0.35509  1.0000
  H   H20       1.0  0.49277  0.63463  0.35543  1.0000
  H   H21       1.0  0.53949  0.66038  0.20426  1.0000
  H   H22       1.0  0.54878  0.71167  0.20614  1.0000
  H   H23       1.0  0.41226  0.51906  0.19837  1.0000
  H   H24       1.0  0.36057  0.50909  0.19642  1.0000
  C   C34       1.0  0.61891  0.06820  0.32454  1.0000
  C   C35       1.0  0.57194  0.02643  0.33473  1.0000
  N   N2        1.0  0.56989  0.05225  0.33926  1.0000
  C   C36       1.0  0.60509  0.10940  0.33764  1.0000
  C   C37       1.0  0.58309  0.11918  0.34224  1.0000
  C   C38       1.0  0.48292  0.07751  0.33484  1.0000
  N   N3        1.0  0.48496  0.05168  0.33940  1.0000
  C   C39       1.0  0.43594  0.03573  0.32476  1.0000
  C   C40       1.0  0.44976  0.99454  0.33764  1.0000
  C   C41       1.0  0.47176  0.98475  0.34211  1.0000
  N   N4        1.0  0.50267  0.00220  0.33846  1.0000
  C   C42       1.0  0.49280  0.95461  0.35005  1.0000
  C   C43       1.0  0.46533  0.95444  0.35004  1.0000
  C   C44       1.0  0.55690  0.97217  0.33913  1.0000
  C   C45       1.0  0.56802  0.92180  0.33686  1.0000
  C   C46       1.0  0.56694  0.93614  0.25654  1.0000
  C   C47       1.0  0.56137  0.96089  0.25748  1.0000
  C   C48       1.0  0.41813  0.97129  0.33610  1.0000
  C   C49       1.0  0.35618  0.92141  0.33791  1.0000
  C   C50       1.0  0.37499  0.92794  0.26120  1.0000
  C   C51       1.0  0.40536  0.95257  0.25994  1.0000
  C   C52       1.0  0.49339  0.14296  0.25765  1.0000
  C   C53       1.0  0.48770  0.16762  0.25674  1.0000
  C   C54       1.0  0.64947  0.15136  0.25986  1.0000
  C   C55       1.0  0.69858  0.18268  0.33791  1.0000
  C   C56       1.0  0.67980  0.17606  0.26114  1.0000
  H   H25       1.0  0.68759  0.18992  0.20607  1.0000
  H   H26       1.0  0.63635  0.14782  0.20403  1.0000
  H   H27       1.0  0.64219  0.08147  0.31844  1.0000
  H   H28       1.0  0.55101  0.05216  0.34978  1.0000
  H   H29       1.0  0.50386  0.05177  0.34948  1.0000
  H   H30       1.0  0.49487  0.13367  0.19825  1.0000
  H   H31       1.0  0.48470  0.17526  0.19630  1.0000
  H   H32       1.0  0.41266  0.02246  0.31873  1.0000
  H   H33       1.0  0.49479  0.93541  0.35450  1.0000
  H   H34       1.0  0.44428  0.93510  0.35488  1.0000
  H   H35       1.0  0.41849  0.95603  0.20415  1.0000
  H   H36       1.0  0.36720  0.91404  0.20617  1.0000
  H   H37       1.0  0.55987  0.97015  0.19809  1.0000
  H   H38       1.0  0.56986  0.92844  0.19608  1.0000
  C   C57       1.0  0.19300  0.49747  0.26524  1.0000
  C   C58       1.0  0.22005  0.49578  0.26599  1.0000
  C   C59       1.0  0.28979  0.52270  0.27560  1.0000
  C   C60       1.0  0.31857  0.52445  0.27431  1.0000
  H   H39       1.0  0.28584  0.53594  0.23174  1.0000
  H   H40       1.0  0.33463  0.53912  0.22971  1.0000
  H   H41       1.0  0.18010  0.49114  0.20815  1.0000
  H   H42       1.0  0.22600  0.48858  0.20931  1.0000
  C   C61       1.0  0.58146  0.77249  0.26490  1.0000
  C   C62       1.0  0.58316  0.80122  0.26565  1.0000
  C   C63       1.0  0.55628  0.84407  0.27518  1.0000
  C   C64       1.0  0.55451  0.87108  0.27390  1.0000
  H   H43       1.0  0.54301  0.82684  0.23137  1.0000
  H   H44       1.0  0.53983  0.87246  0.22933  1.0000
  H   H45       1.0  0.58778  0.76588  0.20782  1.0000
  H   H46       1.0  0.59037  0.81436  0.20897  1.0000
  C   C65       1.0  0.30640  0.88591  0.26511  1.0000
  C   C66       1.0  0.27767  0.85887  0.26594  1.0000
  C   C67       1.0  0.23486  0.78914  0.27559  1.0000
  C   C68       1.0  0.20784  0.76035  0.27436  1.0000
  H   H47       1.0  0.25208  0.79308  0.23174  1.0000
  H   H48       1.0  0.20646  0.74428  0.22980  1.0000
  H   H49       1.0  0.31299  0.89881  0.20800  1.0000
  H   H50       1.0  0.26452  0.85290  0.20929  1.0000
  C   C69       1.0  0.86057  0.60692  0.26532  1.0000
  C   C70       1.0  0.83341  0.60840  0.26614  1.0000
  C   C71       1.0  0.76361  0.58106  0.27566  1.0000
  C   C72       1.0  0.73474  0.57910  0.27439  1.0000
  H   H51       1.0  0.76771  0.56793  0.23166  1.0000
  H   H52       1.0  0.71876  0.56443  0.22963  1.0000
  H   H53       1.0  0.87350  0.61333  0.20826  1.0000
  H   H54       1.0  0.82741  0.61557  0.20952  1.0000
  C   C73       1.0  0.47200  0.33060  0.26500  1.0000
  C   C74       1.0  0.47051  0.30196  0.26580  1.0000
  C   C75       1.0  0.49783  0.25949  0.27529  1.0000
  C   C76       1.0  0.49979  0.23258  0.27402  1.0000
  H   H55       1.0  0.51098  0.27670  0.23132  1.0000
  H   H56       1.0  0.51449  0.23127  0.22933  1.0000
  H   H57       1.0  0.46559  0.33711  0.20793  1.0000
  H   H58       1.0  0.46335  0.28878  0.20917  1.0000
  C   C77       1.0  0.74835  0.21834  0.26525  1.0000
  C   C78       1.0  0.77699  0.24549  0.26612  1.0000
  C   C79       1.0  0.81946  0.31528  0.27568  1.0000
  C   C80       1.0  0.84636  0.34415  0.27447  1.0000
  H   H59       1.0  0.80224  0.31121  0.23174  1.0000
  H   H60       1.0  0.84767  0.36016  0.22983  1.0000
  H   H61       1.0  0.74186  0.20542  0.20817  1.0000
  H   H62       1.0  0.79019  0.25150  0.20953  1.0000
  C   C81       1.0  0.01073  0.62769  0.32516  1.0000
  C   C82       1.0  0.04240  0.64363  0.32629  1.0000
  C   C83       1.0  0.05250  0.62248  0.33530  1.0000
  N   N5        1.0  0.02668  0.59462  0.33987  1.0000
  C   C84       1.0  0.00075  0.59646  0.33445  1.0000
  C   C85       1.0  0.96953  0.57266  0.33805  1.0000
  N   N6        1.0  0.97719  0.52741  0.33903  1.0000
  C   C86       1.0  0.96004  0.49651  0.34393  1.0000
  C   C87       1.0  0.92960  0.48970  0.35080  1.0000
  C   C88       1.0  0.92944  0.51700  0.35069  1.0000
  C   C89       1.0  0.97019  0.47478  0.34042  1.0000
  C   C90       1.0  0.00142  0.48239  0.33522  1.0000
  N   N7        1.0  0.02723  0.51026  0.33968  1.0000
  C   C91       1.0  0.05316  0.50841  0.33429  1.0000
  C   C92       1.0  0.04319  0.47719  0.32464  1.0000
  C   C93       1.0  0.01152  0.46124  0.32589  1.0000
  N   N8        1.0  0.07672  0.57744  0.33907  1.0000
  C   C94       1.0  0.09386  0.60835  0.34394  1.0000
  C   C95       1.0  0.08373  0.63008  0.34026  1.0000
  C   C96       1.0  0.10676  0.66170  0.33970  1.0000
  C   C97       1.0  0.12040  0.67706  0.42029  1.0000
  C   C98       1.0  0.14521  0.70736  0.41902  1.0000
  C   C99       1.0  0.15714  0.72318  0.33739  1.0000
  C   C100      1.0  0.11356  0.51111  0.41284  1.0000
  C   C101      1.0  0.13798  0.50503  0.41330  1.0000
  C   C102      1.0  0.15752  0.51176  0.33820  1.0000
  C   C103      1.0  0.94716  0.44315  0.33987  1.0000
  C   C104      1.0  0.89695  0.38159  0.33760  1.0000
  C   C105      1.0  0.90877  0.39748  0.41920  1.0000
  C   C106      1.0  0.93350  0.42781  0.42046  1.0000
  C   C107      1.0  0.94627  0.58103  0.33638  1.0000
  C   C108      1.0  0.94024  0.59366  0.41272  1.0000
  C   C109      1.0  0.91575  0.59963  0.41322  1.0000
  C   C110      1.0  0.89624  0.59286  0.33809  1.0000
  H   H63       1.0  0.91213  0.60876  0.46990  1.0000
  H   H64       1.0  0.95328  0.59802  0.46916  1.0000
  H   H65       1.0  0.05560  0.66695  0.32125  1.0000
  H   H66       1.0  0.02676  0.57580  0.34996  1.0000
  H   H67       1.0  0.02715  0.52902  0.35088  1.0000
  H   H68       1.0  0.91010  0.51872  0.35552  1.0000
  H   H69       1.0  0.91041  0.46852  0.35532  1.0000
  H   H70       1.0  0.94080  0.43897  0.48038  1.0000
  H   H71       1.0  0.89862  0.38758  0.47868  1.0000
  H   H72       1.0  0.99832  0.43793  0.32087  1.0000
  H   H73       1.0  0.10048  0.50673  0.46921  1.0000
  H   H74       1.0  0.14150  0.49581  0.46990  1.0000
  H   H75       1.0  0.15539  0.71724  0.47848  1.0000
  H   H76       1.0  0.11307  0.66592  0.48021  1.0000
  C   C111      1.0  0.43531  0.47574  0.32536  1.0000
  N   N9        1.0  0.48432  0.50904  0.33919  1.0000
  C   C112      1.0  0.48247  0.48127  0.33380  1.0000
  C   C113      1.0  0.50626  0.47384  0.33775  1.0000
  N   N10       1.0  0.55150  0.52675  0.33866  1.0000
  C   C114      1.0  0.58241  0.54051  0.34354  1.0000
  C   C115      1.0  0.58922  0.51688  0.35051  1.0000
  C   C116      1.0  0.56192  0.48941  0.35051  1.0000
  C   C117      1.0  0.60414  0.57238  0.33996  1.0000
  N   N11       1.0  0.56866  0.59396  0.33942  1.0000
  C   C118      1.0  0.57051  0.62172  0.33404  1.0000
  C   C119      1.0  0.61768  0.62725  0.32576  1.0000
  C   C120      1.0  0.47056  0.56247  0.34358  1.0000
  C   C121      1.0  0.44884  0.53061  0.33994  1.0000
  C   C122      1.0  0.41721  0.52201  0.33940  1.0000
  C   C123      1.0  0.40186  0.52030  0.42002  1.0000
  C   C124      1.0  0.37156  0.51481  0.41880  1.0000
  C   C125      1.0  0.35573  0.51090  0.33720  1.0000
  C   C126      1.0  0.56778  0.67943  0.41250  1.0000
  C   C127      1.0  0.57387  0.70994  0.41297  1.0000
  C   C128      1.0  0.63576  0.58098  0.33946  1.0000
  C   C129      1.0  0.69733  0.59233  0.33734  1.0000
  C   C130      1.0  0.68143  0.58833  0.41891  1.0000
  C   C131      1.0  0.65109  0.58271  0.42009  1.0000
  C   C132      1.0  0.49789  0.44222  0.33606  1.0000
  C   C133      1.0  0.48525  0.42358  0.41240  1.0000
  C   C134      1.0  0.47927  0.39311  0.41290  1.0000
  C   C135      1.0  0.48606  0.38035  0.33779  1.0000
  H   H77       1.0  0.47012  0.38038  0.46956  1.0000
  H   H78       1.0  0.48086  0.43226  0.46880  1.0000
  H   H79       1.0  0.41199  0.46562  0.32039  1.0000
  H   H80       1.0  0.50308  0.52789  0.35039  1.0000
  H   H81       1.0  0.54988  0.57508  0.34999  1.0000
  H   H82       1.0  0.56020  0.46836  0.35541  1.0000
  H   H83       1.0  0.61040  0.51887  0.35505  1.0000
  H   H84       1.0  0.63991  0.57885  0.47999  1.0000
  H   H85       1.0  0.69130  0.58805  0.47840  1.0000
  H   H86       1.0  0.64100  0.63737  0.32076  1.0000
  H   H87       1.0  0.57216  0.67075  0.46887  1.0000
  H   H88       1.0  0.58307  0.72269  0.46958  1.0000
  H   H89       1.0  0.36168  0.51511  0.47828  1.0000
  H   H90       1.0  0.41301  0.52413  0.47993  1.0000
  C   C136      1.0  0.60319  0.03653  0.32564  1.0000
  C   C137      1.0  0.59766  0.07817  0.33390  1.0000
  N   N12       1.0  0.55218  0.10173  0.33856  1.0000
  C   C138      1.0  0.53841  0.11888  0.34340  1.0000
  C   C139      1.0  0.56205  0.14932  0.35016  1.0000
  C   C140      1.0  0.58952  0.14949  0.35015  1.0000
  C   C141      1.0  0.50655  0.10874  0.33980  1.0000
  C   C142      1.0  0.45719  0.02576  0.33402  1.0000
  C   C143      1.0  0.45166  0.06740  0.32590  1.0000
  C   C144      1.0  0.51644  0.98505  0.34322  1.0000
  C   C145      1.0  0.54830  0.99519  0.33970  1.0000
  C   C146      1.0  0.55861  0.95854  0.41972  1.0000
  C   C147      1.0  0.56409  0.93373  0.41846  1.0000
  C   C148      1.0  0.39951  0.96535  0.41247  1.0000
  C   C149      1.0  0.36900  0.94094  0.41300  1.0000
  C   C150      1.0  0.49794  0.13176  0.33926  1.0000
  C   C151      1.0  0.48658  0.18197  0.33706  1.0000
  C   C152      1.0  0.49061  0.17013  0.41865  1.0000
  C   C153      1.0  0.49624  0.14542  0.41986  1.0000
  C   C154      1.0  0.63671  0.13265  0.33603  1.0000
  C   C155      1.0  0.65532  0.13866  0.41243  1.0000
  C   C156      1.0  0.68579  0.16316  0.41301  1.0000
  H   H91       1.0  0.69850  0.16675  0.46971  1.0000
  H   H92       1.0  0.64661  0.12561  0.46884  1.0000
  H   H93       1.0  0.61331  0.02333  0.32061  1.0000
  H   H94       1.0  0.61057  0.16883  0.35495  1.0000
  H   H95       1.0  0.56006  0.16852  0.35459  1.0000
  H   H96       1.0  0.50010  0.13812  0.47978  1.0000
  H   H97       1.0  0.49090  0.18031  0.47813  1.0000
  H   H98       1.0  0.44154  0.08060  0.32093  1.0000
  H   H99       1.0  0.40822  0.97843  0.46884  1.0000
  H   H100      1.0  0.35627  0.93742  0.46966  1.0000
  H   H101      1.0  0.56380  0.92357  0.47794  1.0000
  H   H102      1.0  0.55477  0.96587  0.47965  1.0000
  C   C157      1.0  0.18383  0.50780  0.34081  1.0000
  C   C158      1.0  0.23885  0.50402  0.34283  1.0000
  C   C159      1.0  0.22978  0.51385  0.42017  1.0000
  C   C160      1.0  0.20256  0.51562  0.41796  1.0000
  H   H103      1.0  0.19720  0.52407  0.47304  1.0000
  C   C161      1.0  0.26721  0.50414  0.33884  1.0000
  C   C162      1.0  0.32582  0.50768  0.33594  1.0000
  C   C163      1.0  0.30293  0.48873  0.39823  1.0000
  C   C164      1.0  0.27411  0.48695  0.39964  1.0000
  H   H104      1.0  0.30702  0.47593  0.44338  1.0000
  H   H105      1.0  0.25821  0.47310  0.44588  1.0000
  N   N13       1.0  0.24870  0.52312  0.49712  1.0000
  O   O1        1.0  0.23463  0.50703  0.56379  1.0000
  O   O2        1.0  0.25846  0.55084  0.51563  1.0000
  C   C165      1.0  0.57111  0.75299  0.34046  1.0000
  C   C166      1.0  0.57492  0.81182  0.34249  1.0000
  C   C167      1.0  0.56507  0.79293  0.41980  1.0000
  C   C168      1.0  0.56329  0.76394  0.41760  1.0000
  H   H106      1.0  0.55483  0.75015  0.47267  1.0000
  C   C169      1.0  0.57481  0.84006  0.33847  1.0000
  C   C170      1.0  0.57127  0.89513  0.33555  1.0000
  C   C171      1.0  0.59020  0.89120  0.39787  1.0000
  C   C172      1.0  0.59198  0.86416  0.39930  1.0000
  H   H107      1.0  0.60299  0.90809  0.44305  1.0000
  H   H108      1.0  0.60583  0.86212  0.44556  1.0000
  N   N14       1.0  0.55580  0.80261  0.49675  1.0000
  O   O3        1.0  0.57187  0.80463  0.56344  1.0000
  O   O4        1.0  0.52808  0.78466  0.51522  1.0000
  C   C173      1.0  0.32592  0.89510  0.34062  1.0000
  C   C174      1.0  0.26711  0.84007  0.34281  1.0000
  C   C175      1.0  0.28601  0.84916  0.42008  1.0000
  C   C176      1.0  0.31500  0.87639  0.41781  1.0000
  H   H109      1.0  0.32881  0.88173  0.47282  1.0000
  C   C177      1.0  0.23887  0.81170  0.33887  1.0000
  C   C178      1.0  0.18381  0.75309  0.33606  1.0000
  C   C179      1.0  0.18775  0.77599  0.39836  1.0000
  C   C180      1.0  0.21479  0.80481  0.39973  1.0000
  H   H110      1.0  0.17086  0.77190  0.44355  1.0000
  H   H111      1.0  0.21683  0.82071  0.44598  1.0000
  N   N15       1.0  0.27637  0.83024  0.49705  1.0000
  O   O5        1.0  0.27435  0.84431  0.56374  1.0000
  O   O6        1.0  0.29434  0.82049  0.51547  1.0000
  C   C181      1.0  0.86981  0.59663  0.34079  1.0000
  C   C182      1.0  0.81457  0.60001  0.34296  1.0000
  C   C183      1.0  0.82371  0.59023  0.42019  1.0000
  C   C184      1.0  0.85104  0.58867  0.41791  1.0000
  H   H112      1.0  0.85644  0.58025  0.47292  1.0000
  C   C185      1.0  0.78610  0.59968  0.33901  1.0000
  C   C186      1.0  0.72731  0.59575  0.33611  1.0000
  C   C187      1.0  0.75012  0.61474  0.39852  1.0000
  C   C188      1.0  0.77903  0.61672  0.39993  1.0000
  H   H113      1.0  0.74591  0.62745  0.44375  1.0000
  H   H114      1.0  0.79486  0.63062  0.44624  1.0000
  N   N16       1.0  0.80475  0.58082  0.49711  1.0000
  O   O7        1.0  0.81873  0.59690  0.56388  1.0000
  O   O8        1.0  0.79515  0.55312  0.51541  1.0000
  C   C189      1.0  0.48228  0.35015  0.34049  1.0000
  C   C190      1.0  0.47890  0.29153  0.34260  1.0000
  C   C191      1.0  0.48867  0.31046  0.41986  1.0000
  C   C192      1.0  0.49023  0.33936  0.41761  1.0000
  H   H115      1.0  0.49865  0.35320  0.47262  1.0000
  C   C193      1.0  0.47922  0.26339  0.33864  1.0000
  C   C194      1.0  0.48317  0.20854  0.33580  1.0000
  C   C195      1.0  0.46417  0.21237  0.39820  1.0000
  C   C196      1.0  0.46219  0.23930  0.39959  1.0000
  H   H116      1.0  0.45147  0.19547  0.44346  1.0000
  H   H117      1.0  0.44829  0.24126  0.44591  1.0000
  N   N17       1.0  0.49809  0.30094  0.49677  1.0000
  O   O9        1.0  0.48200  0.29885  0.56354  1.0000
  O   O10       1.0  0.52579  0.31905  0.51508  1.0000
  C   C197      1.0  0.72878  0.20909  0.34069  1.0000
  C   C198      1.0  0.78741  0.26433  0.34296  1.0000
  C   C199      1.0  0.76845  0.25519  0.42016  1.0000
  C   C200      1.0  0.73955  0.22786  0.41783  1.0000
  H   H118      1.0  0.72570  0.22245  0.47280  1.0000
  C   C201      1.0  0.81555  0.29279  0.33904  1.0000
  C   C202      1.0  0.87039  0.35159  0.33628  1.0000
  C   C203      1.0  0.86656  0.32878  0.39869  1.0000
  C   C204      1.0  0.83963  0.29987  0.40004  1.0000
  H   H119      1.0  0.88345  0.33300  0.44397  1.0000
  H   H120      1.0  0.83766  0.28403  0.44636  1.0000
  N   N18       1.0  0.77795  0.27414  0.49709  1.0000
  O   O11       1.0  0.78002  0.26015  0.56387  1.0000
  O   O12       1.0  0.75985  0.28374  0.51534  1.0000
