data_image0
_chemical_formula_structural       C5H3CH3C5H3CH3C5H3CH3C3H3CH3C3H3CH3C3H3CH3NC18H12NC18H12NC18H12NC18H12C3H3CH3C3H3CH3C3H3CH3C5H3CH3C5H3CH3C5H3CH3
_chemical_formula_sum              "C132 H120 N4"
_cell_length_a       39.0954
_cell_length_b       39.0954
_cell_length_c       14.8142
_cell_angle_alpha    90
_cell_angle_beta     90
_cell_angle_gamma    120

_space_group_name_H-M_alt    "P 1"
_space_group_IT_number       1

loop_
  _space_group_symop_operation_xyz
  'x, y, z'

loop_
  _atom_site_type_symbol
  _atom_site_label
  _atom_site_symmetry_multiplicity
  _atom_site_fract_x
  _atom_site_fract_y
  _atom_site_fract_z
  _atom_site_occupancy
  C   C1        1.0  0.25892  0.13097  0.35808  1.0000
  C   C2        1.0  0.23665  0.12960  0.28002  1.0000
  C   C3        1.0  0.19455  0.10441  0.27853  1.0000
  C   C4        1.0  0.17314  0.08890  0.36091  1.0000
  C   C5        1.0  0.17360  0.09385  0.18915  1.0000
  H   H1        1.0  0.19049  0.08797  0.13909  1.0000
  H   H2        1.0  0.16963  0.11802  0.16515  1.0000
  H   H3        1.0  0.14477  0.06708  0.19155  1.0000
  C   C6        1.0  0.25659  0.15523  0.19944  1.0000
  H   H4        1.0  0.28542  0.18055  0.21493  1.0000
  H   H5        1.0  0.23917  0.16774  0.17291  1.0000
  H   H6        1.0  0.26028  0.13794  0.14649  1.0000
  C   C7        1.0  0.87275  0.13188  0.34408  1.0000
  C   C8        1.0  0.85457  0.09225  0.31081  1.0000
  C   C9        1.0  0.87535  0.07060  0.31381  1.0000
  C   C10       1.0  0.91539  0.08917  0.34475  1.0000
  C   C11       1.0  0.85406  0.02790  0.28535  1.0000
  H   H7        1.0  0.82697  0.01139  0.32439  1.0000
  H   H8        1.0  0.87035  0.01238  0.29512  1.0000
  H   H9        1.0  0.84665  0.02564  0.21378  1.0000
  C   C12       1.0  0.81324  0.07245  0.27324  1.0000
  H   H10       1.0  0.79956  0.09076  0.27069  1.0000
  H   H11       1.0  0.79380  0.04682  0.31421  1.0000
  H   H12       1.0  0.81330  0.06290  0.20407  1.0000
  C   C13       1.0  0.87311  0.74588  0.33739  1.0000
  C   C14       1.0  0.89000  0.76796  0.25636  1.0000
  C   C15       1.0  0.90559  0.80988  0.25486  1.0000
  C   C16       1.0  0.91547  0.83184  0.33741  1.0000
  C   C17       1.0  0.90999  0.82985  0.16559  1.0000
  H   H13       1.0  0.88507  0.81157  0.12149  1.0000
  H   H14       1.0  0.93719  0.83529  0.13249  1.0000
  H   H15       1.0  0.91032  0.85779  0.17154  1.0000
  C   C18       1.0  0.89317  0.74816  0.17251  1.0000
  H   H16       1.0  0.89175  0.72008  0.18607  1.0000
  H   H17       1.0  0.92160  0.76643  0.13949  1.0000
  H   H18       1.0  0.86963  0.74302  0.12535  1.0000
  C   C19       1.0  0.57127  0.18410  0.27576  1.0000
  C   C20       1.0  0.60387  0.17756  0.26382  1.0000
  C   C21       1.0  0.55677  0.19662  0.19542  1.0000
  H   H19       1.0  0.54072  0.21174  0.21365  1.0000
  H   H20       1.0  0.53759  0.17100  0.15403  1.0000
  H   H21       1.0  0.58152  0.21775  0.15428  1.0000
  C   C22       1.0  0.61209  0.16761  0.17138  1.0000
  H   H22       1.0  0.63031  0.15373  0.17264  1.0000
  H   H23       1.0  0.62689  0.19415  0.12979  1.0000
  H   H24       1.0  0.58456  0.14639  0.13848  1.0000
  C   C23       1.0  0.81885  0.38900  0.25961  1.0000
  C   C24       1.0  0.82432  0.42774  0.24747  1.0000
  C   C25       1.0  0.80611  0.36155  0.18004  1.0000
  H   H25       1.0  0.79040  0.33051  0.19950  1.0000
  H   H26       1.0  0.83174  0.36728  0.13953  1.0000
  H   H27       1.0  0.78543  0.36533  0.13760  1.0000
  C   C26       1.0  0.83249  0.44538  0.15452  1.0000
  H   H28       1.0  0.84687  0.47751  0.15528  1.0000
  H   H29       1.0  0.80508  0.43380  0.11622  1.0000
  H   H30       1.0  0.85263  0.43849  0.11839  1.0000
  C   C27       1.0  0.61572  0.43094  0.26976  1.0000
  C   C28       1.0  0.57664  0.39803  0.25941  1.0000
  C   C29       1.0  0.64233  0.44501  0.18868  1.0000
  H   H31       1.0  0.67358  0.46132  0.20612  1.0000
  H   H32       1.0  0.63554  0.46380  0.14680  1.0000
  H   H33       1.0  0.63865  0.42004  0.14830  1.0000
  C   C30       1.0  0.55809  0.38867  0.16736  1.0000
  H   H34       1.0  0.52599  0.37060  0.16947  1.0000
  H   H35       1.0  0.56956  0.37323  0.12721  1.0000
  H   H36       1.0  0.56434  0.41576  0.13237  1.0000
  N   N1        1.0  0.00095  0.00394  0.34997  1.0000
  C   C31       1.0  0.04385  0.02608  0.35873  1.0000
  C   C32       1.0  0.97858  0.96114  0.34311  1.0000
  C   C33       1.0  0.97927  0.02485  0.34815  1.0000
  C   C34       1.0  0.96985  0.03665  0.26598  1.0000
  C   C35       1.0  0.94966  0.05825  0.26483  1.0000
  C   C36       1.0  0.93674  0.06764  0.34572  1.0000
  C   C37       1.0  0.94567  0.05518  0.42785  1.0000
  C   C38       1.0  0.96722  0.03497  0.42904  1.0000
  C   C39       1.0  0.06542  0.00935  0.39717  1.0000
  C   C40       1.0  0.10721  0.02927  0.39654  1.0000
  C   C41       1.0  0.13006  0.06817  0.36218  1.0000
  C   C42       1.0  0.10865  0.08579  0.32801  1.0000
  C   C43       1.0  0.06693  0.06496  0.32408  1.0000
  C   C44       1.0  0.99140  0.93997  0.28838  1.0000
  C   C45       1.0  0.97183  0.89818  0.28888  1.0000
  C   C46       1.0  0.93628  0.87502  0.33772  1.0000
  C   C47       1.0  0.92215  0.89638  0.38779  1.0000
  C   C48       1.0  0.94352  0.93805  0.39334  1.0000
  H   H37       1.0  0.12102  0.01493  0.42165  1.0000
  H   H38       1.0  0.05065  0.98148  0.42361  1.0000
  H   H39       1.0  0.05346  0.07885  0.29511  1.0000
  H   H40       1.0  0.12350  0.11394  0.30294  1.0000
  H   H41       1.0  0.97850  0.03021  0.20628  1.0000
  H   H42       1.0  0.94390  0.06668  0.20395  1.0000
  H   H43       1.0  0.01667  0.95508  0.25121  1.0000
  H   H44       1.0  0.98386  0.88461  0.25230  1.0000
  H   H45       1.0  0.89637  0.88149  0.42343  1.0000
  H   H46       1.0  0.93264  0.95154  0.43377  1.0000
  H   H47       1.0  0.97364  0.02700  0.48970  1.0000
  H   H48       1.0  0.93708  0.06144  0.48793  1.0000
  N   N2        1.0  0.43067  0.21583  0.35253  1.0000
  C   C49       1.0  0.45420  0.25701  0.32750  1.0000
  C   C50       1.0  0.38804  0.19483  0.35376  1.0000
  C   C51       1.0  0.45347  0.19734  0.37685  1.0000
  C   C52       1.0  0.48527  0.21663  0.43851  1.0000
  C   C53       1.0  0.51801  0.21073  0.43509  1.0000
  C   C54       1.0  0.51883  0.18260  0.37611  1.0000
  C   C55       1.0  0.48424  0.15903  0.32484  1.0000
  C   C56       1.0  0.45303  0.16734  0.32253  1.0000
  C   C57       1.0  0.45381  0.28722  0.37939  1.0000
  C   C58       1.0  0.48516  0.32666  0.37561  1.0000
  C   C59       1.0  0.51998  0.33705  0.32582  1.0000
  C   C60       1.0  0.51927  0.30733  0.26971  1.0000
  C   C61       1.0  0.48630  0.26882  0.26697  1.0000
  C   C62       1.0  0.36657  0.20121  0.42218  1.0000
  C   C63       1.0  0.32481  0.18150  0.42192  1.0000
  C   C64       1.0  0.30206  0.15226  0.35671  1.0000
  C   C65       1.0  0.32371  0.14497  0.29003  1.0000
  C   C66       1.0  0.36546  0.16659  0.28695  1.0000
  H   H49       1.0  0.48405  0.34703  0.41700  1.0000
  H   H50       1.0  0.43209  0.28044  0.42573  1.0000
  H   H51       1.0  0.48871  0.24790  0.23052  1.0000
  H   H52       1.0  0.54385  0.31283  0.23374  1.0000
  H   H53       1.0  0.48775  0.23967  0.47630  1.0000
  H   H54       1.0  0.54254  0.22923  0.47192  1.0000
  H   H55       1.0  0.38129  0.22044  0.47348  1.0000
  H   H56       1.0  0.31093  0.18819  0.47162  1.0000
  H   H57       1.0  0.30901  0.12411  0.24136  1.0000
  H   H58       1.0  0.37934  0.16143  0.23480  1.0000
  H   H59       1.0  0.43175  0.15352  0.27464  1.0000
  H   H60       1.0  0.48339  0.13840  0.28099  1.0000
  N   N3        1.0  0.78774  0.21732  0.34289  1.0000
  C   C67       1.0  0.74627  0.19894  0.32148  1.0000
  C   C68       1.0  0.80880  0.19598  0.34308  1.0000
  C   C69       1.0  0.80662  0.25873  0.36481  1.0000
  C   C70       1.0  0.78825  0.27203  0.42697  1.0000
  C   C71       1.0  0.79431  0.31066  0.42147  1.0000
  C   C72       1.0  0.82185  0.33881  0.36016  1.0000
  C   C73       1.0  0.84447  0.32689  0.30783  1.0000
  C   C74       1.0  0.83594  0.28725  0.30754  1.0000
  C   C75       1.0  0.71758  0.16847  0.37621  1.0000
  C   C76       1.0  0.67780  0.15951  0.37578  1.0000
  C   C77       1.0  0.66583  0.18291  0.32667  1.0000
  C   C78       1.0  0.69429  0.21192  0.26830  1.0000
  C   C79       1.0  0.73301  0.21831  0.26210  1.0000
  C   C80       1.0  0.81056  0.17616  0.42127  1.0000
  C   C81       1.0  0.83103  0.15485  0.42139  1.0000
  C   C82       1.0  0.85136  0.15329  0.34374  1.0000
  C   C83       1.0  0.84996  0.17353  0.26574  1.0000
  C   C84       1.0  0.82873  0.19409  0.26524  1.0000
  H   H61       1.0  0.65838  0.13808  0.41867  1.0000
  H   H62       1.0  0.72598  0.15443  0.42168  1.0000
  H   H63       1.0  0.75304  0.24159  0.22404  1.0000
  H   H64       1.0  0.68770  0.23038  0.23296  1.0000
  H   H65       1.0  0.76567  0.25201  0.46667  1.0000
  H   H66       1.0  0.77649  0.31731  0.45920  1.0000
  H   H67       1.0  0.79667  0.17707  0.47895  1.0000
  H   H68       1.0  0.83143  0.14077  0.47928  1.0000
  H   H69       1.0  0.86414  0.17305  0.20810  1.0000
  H   H70       1.0  0.82798  0.20795  0.20737  1.0000
  H   H71       1.0  0.84892  0.27867  0.25963  1.0000
  H   H72       1.0  0.86460  0.34603  0.26226  1.0000
  N   N4        1.0  0.78758  0.57378  0.33774  1.0000
  C   C85       1.0  0.80522  0.55023  0.31241  1.0000
  C   C86       1.0  0.80891  0.61650  0.33743  1.0000
  C   C87       1.0  0.74650  0.55071  0.36394  1.0000
  C   C88       1.0  0.73488  0.51961  0.42719  1.0000
  C   C89       1.0  0.69643  0.48646  0.42569  1.0000
  C   C90       1.0  0.66683  0.48464  0.36732  1.0000
  C   C91       1.0  0.67697  0.51866  0.31462  1.0000
  C   C92       1.0  0.71629  0.55016  0.31018  1.0000
  C   C93       1.0  0.83632  0.55115  0.36333  1.0000
  C   C94       1.0  0.84468  0.51999  0.35981  1.0000
  C   C95       1.0  0.81993  0.48475  0.31172  1.0000
  C   C96       1.0  0.79046  0.48493  0.25631  1.0000
  C   C97       1.0  0.78470  0.51777  0.25291  1.0000
  C   C98       1.0  0.83839  0.63871  0.40226  1.0000
  C   C99       1.0  0.86025  0.68047  0.40000  1.0000
  C   C100      1.0  0.85171  0.70267  0.33735  1.0000
  C   C101      1.0  0.82102  0.68028  0.27476  1.0000
  C   C102      1.0  0.80135  0.63853  0.27266  1.0000
  H   H73       1.0  0.86642  0.52148  0.40088  1.0000
  H   H74       1.0  0.85142  0.57305  0.40907  1.0000
  H   H75       1.0  0.76102  0.51500  0.21738  1.0000
  H   H76       1.0  0.77118  0.46004  0.22155  1.0000
  H   H77       1.0  0.75592  0.51785  0.46468  1.0000
  H   H78       1.0  0.69097  0.46242  0.46381  1.0000
  H   H79       1.0  0.84432  0.62461  0.45250  1.0000
  H   H80       1.0  0.88216  0.69476  0.44670  1.0000
  H   H81       1.0  0.81317  0.69442  0.22819  1.0000
  H   H82       1.0  0.78121  0.62430  0.22271  1.0000
  H   H83       1.0  0.72304  0.57076  0.26102  1.0000
  H   H84       1.0  0.65676  0.51875  0.27090  1.0000
  C   C103      1.0  0.19541  0.09460  0.44177  1.0000
  C   C104      1.0  0.23738  0.11072  0.43747  1.0000
  C   C105      1.0  0.17549  0.08467  0.53234  1.0000
  H   H85       1.0  0.14695  0.08328  0.53211  1.0000
  H   H86       1.0  0.19328  0.10734  0.58185  1.0000
  H   H87       1.0  0.17115  0.05631  0.55567  1.0000
  C   C106      1.0  0.25800  0.10499  0.51662  1.0000
  H   H88       1.0  0.28646  0.10800  0.49930  1.0000
  H   H89       1.0  0.24053  0.07522  0.54397  1.0000
  H   H90       1.0  0.26261  0.12630  0.56954  1.0000
  C   C107      1.0  0.93395  0.12927  0.37532  1.0000
  C   C108      1.0  0.91232  0.15009  0.37767  1.0000
  C   C109      1.0  0.97660  0.15057  0.40419  1.0000
  H   H91       1.0  0.99214  0.13427  0.39462  1.0000
  H   H92       1.0  0.97873  0.15796  0.47575  1.0000
  H   H93       1.0  0.99319  0.17766  0.36520  1.0000
  C   C110      1.0  0.93208  0.19144  0.41503  1.0000
  H   H94       1.0  0.91377  0.20513  0.41718  1.0000
  H   H95       1.0  0.95777  0.21085  0.37418  1.0000
  H   H96       1.0  0.94153  0.19145  0.48433  1.0000
  C   C111      1.0  0.90388  0.80981  0.41996  1.0000
  C   C112      1.0  0.87805  0.76782  0.41850  1.0000
  C   C113      1.0  0.91961  0.82974  0.50923  1.0000
  H   H97       1.0  0.94669  0.85816  0.50300  1.0000
  H   H98       1.0  0.92727  0.81185  0.55207  1.0000
  H   H99       1.0  0.89755  0.83425  0.54383  1.0000
  C   C114      1.0  0.85527  0.74786  0.50245  1.0000
  H   H100      1.0  0.82890  0.71951  0.48909  1.0000
  H   H101      1.0  0.84465  0.76578  0.53528  1.0000
  H   H102      1.0  0.87396  0.74321  0.54972  1.0000
  C   C115      1.0  0.62757  0.17990  0.33969  1.0000
  C   C116      1.0  0.61386  0.18225  0.42789  1.0000
  C   C117      1.0  0.57492  0.17636  0.43927  1.0000
  C   C118      1.0  0.55455  0.18045  0.36364  1.0000
  C   C119      1.0  0.55584  0.16538  0.53064  1.0000
  H   H103      1.0  0.56263  0.14462  0.56414  1.0000
  H   H104      1.0  0.52370  0.15059  0.52731  1.0000
  H   H105      1.0  0.56636  0.19166  0.57271  1.0000
  C   C120      1.0  0.64010  0.19249  0.50925  1.0000
  H   H106      1.0  0.67137  0.20967  0.49226  1.0000
  H   H107      1.0  0.63453  0.16560  0.54407  1.0000
  H   H108      1.0  0.63500  0.21094  0.55632  1.0000
  C   C121      1.0  0.82254  0.44924  0.32365  1.0000
  C   C122      1.0  0.82160  0.43378  0.41186  1.0000
  C   C123      1.0  0.82852  0.40137  0.42258  1.0000
  C   C124      1.0  0.82398  0.37665  0.34713  1.0000
  C   C125      1.0  0.84104  0.39428  0.51321  1.0000
  H   H109      1.0  0.86292  0.42222  0.54349  1.0000
  H   H110      1.0  0.85512  0.37628  0.50953  1.0000
  H   H111      1.0  0.81566  0.37973  0.55831  1.0000
  C   C126      1.0  0.81158  0.44947  0.49413  1.0000
  H   H112      1.0  0.79561  0.46494  0.47847  1.0000
  H   H113      1.0  0.83845  0.46952  0.53085  1.0000
  H   H114      1.0  0.79207  0.42541  0.53897  1.0000
  C   C127      1.0  0.55572  0.37509  0.33650  1.0000
  C   C128      1.0  0.57222  0.38962  0.42399  1.0000
  C   C129      1.0  0.60519  0.42874  0.43349  1.0000
  C   C130      1.0  0.62913  0.44855  0.35680  1.0000
  C   C131      1.0  0.61374  0.44852  0.52411  1.0000
  H   H115      1.0  0.58635  0.44227  0.55763  1.0000
  H   H116      1.0  0.63136  0.48061  0.51972  1.0000
  H   H117      1.0  0.62937  0.43804  0.56674  1.0000
  C   C132      1.0  0.55683  0.36412  0.50664  1.0000
  H   H118      1.0  0.54159  0.33266  0.49119  1.0000
  H   H119      1.0  0.53667  0.37083  0.54321  1.0000
  H   H120      1.0  0.58096  0.36893  0.55155  1.0000
