data_image0
_chemical_formula_structural       C3HNO2NC3HNO2NC3HNO2NC3HNO2NC2NO2NC3HNO2NCHC3HNO2NC3HNO2NC3HNO2NC6H3C3H3C6H3C3H3C6H3C3H3C6H3C3H3CHCHC6H3C3H3C3HNO2NC3HNO2NC3HNO2NC3HNO2NCHC3HNO2NC2NO2NC3HNO2NC3HNO2NC3HNO2NC3HNO2NC3HNO2NC3HNO2NCHCHC5H2C2H2C2HCHC6H3C3H3CHCHC3HNO2NOC3HNO2NC3HNO2NC3HNO2NC3HNO2NC3HNO2NCHC3HNO2NC2NO2NC3HNO2NC5H2C2H2C6H3C3H3C6H3C3H3C4H2C2H2C5H2C2H2C3HNO2NC3HNO2NC3HNO2NC2NO2NC3HNO2NCHC3HNON
_chemical_formula_sum              "C216 H108 N72 O72"
_cell_length_a       57.9317
_cell_length_b       57.9317
_cell_length_c       14.5265
_cell_angle_alpha    90
_cell_angle_beta     90
_cell_angle_gamma    120

_space_group_name_H-M_alt    "P 1"
_space_group_IT_number       1

loop_
  _space_group_symop_operation_xyz
  'x, y, z'

loop_
  _atom_site_type_symbol
  _atom_site_label
  _atom_site_symmetry_multiplicity
  _atom_site_fract_x
  _atom_site_fract_y
  _atom_site_fract_z
  _atom_site_occupancy
  C   C1        1.0  0.23347  0.43166  0.36984  1.0000
  C   C2        1.0  0.21764  0.41672  0.29367  1.0000
  C   C3        1.0  0.20330  0.38832  0.29704  1.0000
  H   H1        1.0  0.19255  0.37803  0.24056  1.0000
  N   N1        1.0  0.21735  0.43054  0.21385  1.0000
  O   O1        1.0  0.19416  0.42565  0.19517  1.0000
  O   O2        1.0  0.22658  0.42459  0.14533  1.0000
  N   N2        1.0  0.24922  0.45849  0.37227  1.0000
  C   C4        1.0  0.23076  0.79878  0.36989  1.0000
  C   C5        1.0  0.23167  0.81463  0.29375  1.0000
  C   C6        1.0  0.21762  0.82898  0.29711  1.0000
  H   H2        1.0  0.21809  0.83974  0.24065  1.0000
  N   N3        1.0  0.24580  0.81493  0.21397  1.0000
  O   O3        1.0  0.26411  0.83813  0.19535  1.0000
  O   O4        1.0  0.23064  0.80573  0.14540  1.0000
  N   N4        1.0  0.24182  0.78302  0.37231  1.0000
  C   C7        1.0  0.44261  0.21979  0.37006  1.0000
  C   C8        1.0  0.42767  0.22070  0.29393  1.0000
  C   C9        1.0  0.39927  0.20665  0.29731  1.0000
  H   H3        1.0  0.38898  0.20712  0.24084  1.0000
  N   N5        1.0  0.44149  0.23482  0.21413  1.0000
  O   O5        1.0  0.43662  0.25313  0.19548  1.0000
  O   O6        1.0  0.43553  0.21965  0.14558  1.0000
  N   N6        1.0  0.46943  0.23084  0.37242  1.0000
  C   C10       1.0  0.20186  0.22065  0.35145  1.0000
  C   C11       1.0  0.20233  0.20491  0.27731  1.0000
  C   C12       1.0  0.21777  0.19206  0.28332  1.0000
  H   H4        1.0  0.21814  0.18133  0.22802  1.0000
  N   N7        1.0  0.18753  0.20278  0.19704  1.0000
  O   O7        1.0  0.20245  0.21206  0.12789  1.0000
  O   O8        1.0  0.17030  0.17896  0.18086  1.0000
  N   N8        1.0  0.18645  0.23215  0.34545  1.0000
  C   C13       1.0  0.05139  0.83042  0.35145  1.0000
  C   C14       1.0  0.03519  0.82995  0.27730  1.0000
  N   N9        1.0  0.04785  0.84474  0.19701  1.0000
  O   O9        1.0  0.04222  0.82981  0.12788  1.0000
  O   O10       1.0  0.04126  0.86196  0.18077  1.0000
  N   N10       1.0  0.07831  0.84584  0.34545  1.0000
  C   C15       1.0  0.23160  0.04041  0.35150  1.0000
  C   C16       1.0  0.21585  0.02420  0.27738  1.0000
  C   C17       1.0  0.20301  0.99591  0.28336  1.0000
  H   H5        1.0  0.19227  0.98481  0.22806  1.0000
  N   N11       1.0  0.21370  0.03687  0.19714  1.0000
  O   O11       1.0  0.22297  0.03125  0.12794  1.0000
  O   O12       1.0  0.18987  0.03027  0.18101  1.0000
  N   N12       1.0  0.24310  0.06733  0.34552  1.0000
  C   C18       1.0  0.03638  0.20678  0.28335  1.0000
  H   H6        1.0  0.04748  0.20714  0.22807  1.0000
  C   C19       1.0  0.25001  0.59972  0.38050  1.0000
  C   C20       1.0  0.22728  0.60022  0.34526  1.0000
  C   C21       1.0  0.22601  0.62409  0.34751  1.0000
  H   H7        1.0  0.21002  0.62436  0.31876  1.0000
  N   N13       1.0  0.20576  0.57815  0.30159  1.0000
  O   O13       1.0  0.19445  0.55857  0.35510  1.0000
  O   O14       1.0  0.21324  0.57122  0.23083  1.0000
  N   N14       1.0  0.25216  0.57715  0.37195  1.0000
  C   C22       1.0  0.43254  0.64998  0.38022  1.0000
  C   C23       1.0  0.43201  0.62674  0.34496  1.0000
  C   C24       1.0  0.40813  0.60160  0.34730  1.0000
  H   H8        1.0  0.40784  0.58534  0.31854  1.0000
  N   N15       1.0  0.45405  0.62727  0.30117  1.0000
  O   O15       1.0  0.47366  0.63554  0.35458  1.0000
  O   O16       1.0  0.46096  0.64167  0.23039  1.0000
  N   N16       1.0  0.45511  0.67468  0.37162  1.0000
  C   C25       1.0  0.38227  0.78221  0.38040  1.0000
  C   C26       1.0  0.40552  0.80497  0.34545  1.0000
  C   C27       1.0  0.43066  0.80624  0.34769  1.0000
  H   H9        1.0  0.44694  0.82226  0.31917  1.0000
  N   N17       1.0  0.40501  0.82656  0.30214  1.0000
  O   O17       1.0  0.39672  0.83780  0.35585  1.0000
  O   O18       1.0  0.39062  0.81916  0.23130  1.0000
  N   N18       1.0  0.35757  0.78008  0.37192  1.0000
  C   C28       1.0  0.16138  0.30042  0.35103  1.0000
  C   C29       1.0  0.13366  0.28169  0.34328  1.0000
  C   C30       1.0  0.12329  0.25371  0.34740  1.0000
  C   C31       1.0  0.14183  0.24459  0.35787  1.0000
  C   C32       1.0  0.16970  0.26229  0.36649  1.0000
  C   C33       1.0  0.17885  0.29011  0.36367  1.0000
  H   H10       1.0  0.13483  0.22448  0.36050  1.0000
  H   H11       1.0  0.19891  0.30325  0.36844  1.0000
  H   H12       1.0  0.12066  0.28857  0.33248  1.0000
  C   C34       1.0  0.09601  0.23528  0.33398  1.0000
  C   C35       1.0  0.18791  0.25324  0.38194  1.0000
  C   C36       1.0  0.17076  0.32793  0.33980  1.0000
  H   H13       1.0  0.15981  0.33310  0.30166  1.0000
  H   H14       1.0  0.20353  0.26444  0.42185  1.0000
  H   H15       1.0  0.09146  0.21898  0.29781  1.0000
  C   C37       1.0  0.17164  0.87090  0.35106  1.0000
  C   C38       1.0  0.18063  0.89863  0.34332  1.0000
  C   C39       1.0  0.16304  0.90900  0.34746  1.0000
  C   C40       1.0  0.13536  0.89046  0.35790  1.0000
  C   C41       1.0  0.12519  0.86260  0.36652  1.0000
  C   C42       1.0  0.14386  0.85344  0.36369  1.0000
  H   H16       1.0  0.12226  0.89746  0.36051  1.0000
  H   H17       1.0  0.13693  0.83338  0.36849  1.0000
  H   H18       1.0  0.20051  0.91162  0.33248  1.0000
  C   C43       1.0  0.17189  0.93628  0.33396  1.0000
  C   C44       1.0  0.09794  0.84439  0.38198  1.0000
  C   C45       1.0  0.18977  0.86152  0.33983  1.0000
  H   H19       1.0  0.20590  0.87247  0.30176  1.0000
  H   H20       1.0  0.09352  0.82878  0.42191  1.0000
  H   H21       1.0  0.16014  0.94082  0.29769  1.0000
  C   C46       1.0  0.31137  0.16066  0.35125  1.0000
  C   C47       1.0  0.29263  0.16965  0.34344  1.0000
  C   C48       1.0  0.26466  0.15205  0.34749  1.0000
  C   C49       1.0  0.25553  0.12437  0.35793  1.0000
  C   C50       1.0  0.27323  0.11421  0.36661  1.0000
  C   C51       1.0  0.30106  0.13288  0.36380  1.0000
  H   H22       1.0  0.23543  0.11127  0.36051  1.0000
  H   H23       1.0  0.31419  0.12596  0.36861  1.0000
  H   H24       1.0  0.29952  0.18952  0.33263  1.0000
  C   C52       1.0  0.24624  0.16091  0.33398  1.0000
  C   C53       1.0  0.26419  0.08695  0.38199  1.0000
  C   C54       1.0  0.33887  0.17879  0.34001  1.0000
  H   H25       1.0  0.34405  0.19492  0.30193  1.0000
  H   H26       1.0  0.27539  0.08252  0.42184  1.0000
  H   H27       1.0  0.22994  0.14915  0.29779  1.0000
  C   C55       1.0  0.26638  0.50538  0.35743  1.0000
  C   C56       1.0  0.25920  0.52561  0.36506  1.0000
  C   C57       1.0  0.27854  0.55283  0.37853  1.0000
  C   C58       1.0  0.30550  0.55913  0.38271  1.0000
  C   C59       1.0  0.31417  0.54055  0.36959  1.0000
  C   C60       1.0  0.29404  0.51353  0.35764  1.0000
  H   H28       1.0  0.31972  0.57864  0.38950  1.0000
  H   H29       1.0  0.29971  0.49956  0.34813  1.0000
  H   H30       1.0  0.23953  0.52043  0.36290  1.0000
  C   C61       1.0  0.27413  0.57481  0.38680  1.0000
  C   C62       1.0  0.34195  0.54966  0.36430  1.0000
  C   C63       1.0  0.24662  0.47841  0.34595  1.0000
  H   H31       1.0  0.22923  0.47445  0.31911  1.0000
  H   H32       1.0  0.34839  0.53681  0.34569  1.0000
  H   H33       1.0  0.29098  0.59250  0.39911  1.0000
  C   C64       1.0  0.47313  0.74605  0.38232  1.0000
  H   H34       1.0  0.45363  0.74077  0.38892  1.0000
  C   C65       1.0  0.45745  0.69900  0.38635  1.0000
  H   H35       1.0  0.43975  0.69816  0.39849  1.0000
  C   C66       1.0  0.27156  0.76587  0.35751  1.0000
  C   C67       1.0  0.29896  0.77304  0.36511  1.0000
  C   C68       1.0  0.30685  0.75369  0.37830  1.0000
  C   C69       1.0  0.28619  0.72673  0.38229  1.0000
  C   C70       1.0  0.25893  0.71808  0.36944  1.0000
  C   C71       1.0  0.25206  0.73821  0.35768  1.0000
  H   H36       1.0  0.29147  0.71250  0.38899  1.0000
  H   H37       1.0  0.23240  0.73254  0.34827  1.0000
  H   H38       1.0  0.31347  0.79271  0.36299  1.0000
  C   C72       1.0  0.33324  0.75810  0.38656  1.0000
  C   C73       1.0  0.24026  0.69030  0.36420  1.0000
  C   C74       1.0  0.26436  0.78564  0.34612  1.0000
  H   H39       1.0  0.27780  0.80304  0.31942  1.0000
  H   H40       1.0  0.22094  0.68386  0.34589  1.0000
  H   H41       1.0  0.33409  0.74123  0.39836  1.0000
  C   C75       1.0  0.20435  0.37390  0.37423  1.0000
  C   C76       1.0  0.22058  0.38889  0.44936  1.0000
  C   C77       1.0  0.23481  0.41723  0.44612  1.0000
  H   H42       1.0  0.24651  0.42752  0.50109  1.0000
  N   N19       1.0  0.22216  0.37504  0.52721  1.0000
  O   O19       1.0  0.21370  0.38075  0.59835  1.0000
  O   O20       1.0  0.24567  0.38023  0.54156  1.0000
  N   N20       1.0  0.19217  0.34692  0.37687  1.0000
  C   C78       1.0  0.20213  0.82792  0.37426  1.0000
  C   C79       1.0  0.20086  0.81166  0.44936  1.0000
  C   C80       1.0  0.21497  0.79743  0.44613  1.0000
  H   H43       1.0  0.21353  0.78571  0.50108  1.0000
  N   N21       1.0  0.18540  0.81007  0.52716  1.0000
  O   O21       1.0  0.19956  0.81851  0.59836  1.0000
  O   O22       1.0  0.16709  0.78656  0.54142  1.0000
  N   N22       1.0  0.18734  0.84010  0.37688  1.0000
  C   C81       1.0  0.38484  0.19118  0.37450  1.0000
  C   C82       1.0  0.39983  0.18990  0.44955  1.0000
  C   C83       1.0  0.42817  0.20400  0.44631  1.0000
  H   H44       1.0  0.43845  0.20255  0.50124  1.0000
  N   N23       1.0  0.38597  0.17444  0.52736  1.0000
  O   O23       1.0  0.39170  0.18859  0.59856  1.0000
  O   O24       1.0  0.39116  0.15612  0.54158  1.0000
  N   N24       1.0  0.35787  0.17637  0.37709  1.0000
  C   C84       1.0  0.23295  0.19401  0.36242  1.0000
  C   C85       1.0  0.23250  0.20976  0.43654  1.0000
  C   C86       1.0  0.21703  0.22259  0.43057  1.0000
  H   H45       1.0  0.21670  0.23333  0.48586  1.0000
  N   N25       1.0  0.24736  0.21194  0.51670  1.0000
  O   O25       1.0  0.23249  0.20268  0.58597  1.0000
  O   O26       1.0  0.26458  0.23577  0.53276  1.0000
  N   N26       1.0  0.24846  0.18260  0.36784  1.0000
  C   C87       1.0  0.03816  0.81526  0.43059  1.0000
  H   H46       1.0  0.04924  0.81560  0.48590  1.0000
  C   C88       1.0  0.20497  0.98268  0.36242  1.0000
  C   C89       1.0  0.22074  0.99888  0.43653  1.0000
  C   C90       1.0  0.23355  0.02717  0.43059  1.0000
  H   H47       1.0  0.24430  0.03825  0.48587  1.0000
  N   N27       1.0  0.22293  0.98620  0.51666  1.0000
  O   O27       1.0  0.21367  0.99180  0.58596  1.0000
  O   O28       1.0  0.24677  0.99281  0.53268  1.0000
  N   N28       1.0  0.19357  0.95577  0.36784  1.0000
  C   C91       1.0  0.04961  0.22199  0.36239  1.0000
  C   C92       1.0  0.03342  0.22157  0.43649  1.0000
  N   N29       1.0  0.04610  0.23646  0.51659  1.0000
  O   O29       1.0  0.04050  0.22161  0.58593  1.0000
  O   O30       1.0  0.03948  0.25368  0.53254  1.0000
  N   N30       1.0  0.07652  0.23750  0.36778  1.0000
  C   C93       1.0  0.24716  0.64806  0.38298  1.0000
  C   C94       1.0  0.26941  0.64766  0.42120  1.0000
  C   C95       1.0  0.27027  0.62371  0.42065  1.0000
  H   H48       1.0  0.28634  0.62435  0.45153  1.0000
  N   N31       1.0  0.29059  0.67116  0.46010  1.0000
  O   O31       1.0  0.29349  0.66836  0.54434  1.0000
  O   O32       1.0  0.31232  0.67814  0.41974  1.0000
  N   N32       1.0  0.24774  0.67177  0.37852  1.0000
  C   C96       1.0  0.38418  0.59881  0.38289  1.0000
  C   C97       1.0  0.38461  0.62146  0.42113  1.0000
  C   C98       1.0  0.40856  0.64627  0.42048  1.0000
  H   H49       1.0  0.40795  0.66171  0.45141  1.0000
  N   N33       1.0  0.36112  0.61916  0.46014  1.0000
  O   O33       1.0  0.36396  0.62487  0.54437  1.0000
  O   O34       1.0  0.35414  0.63391  0.41982  1.0000
  N   N34       1.0  0.36046  0.57568  0.37858  1.0000
  C   C99       1.0  0.43346  0.78504  0.38288  1.0000
  C   C100      1.0  0.41079  0.76276  0.42080  1.0000
  C   C101      1.0  0.38598  0.76190  0.42025  1.0000
  H   H50       1.0  0.37053  0.74580  0.45095  1.0000
  N   N35       1.0  0.41308  0.74153  0.45940  1.0000
  O   O35       1.0  0.40733  0.73852  0.54359  1.0000
  O   O36       1.0  0.39835  0.71985  0.41871  1.0000
  N   N36       1.0  0.45660  0.78448  0.37846  1.0000
  C   C102      1.0  0.60062  0.80151  0.36984  1.0000
  C   C103      1.0  0.61556  0.80061  0.29368  1.0000
  C   C104      1.0  0.64396  0.81467  0.29705  1.0000
  H   H51       1.0  0.65426  0.81421  0.24057  1.0000
  N   N37       1.0  0.60174  0.78650  0.21386  1.0000
  O   O37       1.0  0.60663  0.76819  0.19520  1.0000
  O   O38       1.0  0.60770  0.80167  0.14533  1.0000
  N   N38       1.0  0.57380  0.79044  0.37226  1.0000
  C   C105      1.0  0.61073  0.37135  0.38010  1.0000
  C   C106      1.0  0.61118  0.39463  0.34571  1.0000
  C   C107      1.0  0.63506  0.41977  0.34792  1.0000
  H   H52       1.0  0.63529  0.43607  0.31980  1.0000
  N   N39       1.0  0.58903  0.39417  0.30301  1.0000
  O   O39       1.0  0.56956  0.38584  0.35708  1.0000
  O   O40       1.0  0.58193  0.37984  0.23202  1.0000
  N   N40       1.0  0.58813  0.34666  0.37166  1.0000
  C   C108      1.0  0.66097  0.23910  0.38014  1.0000
  C   C109      1.0  0.63767  0.21624  0.34587  1.0000
  C   C110      1.0  0.61254  0.21499  0.34807  1.0000
  H   H53       1.0  0.59623  0.19889  0.32006  1.0000
  N   N41       1.0  0.63813  0.19453  0.30334  1.0000
  O   O41       1.0  0.64646  0.18342  0.35752  1.0000
  O   O42       1.0  0.65245  0.20172  0.23233  1.0000
  N   N42       1.0  0.68565  0.24118  0.37172  1.0000
  C   C111      1.0  0.73187  0.86065  0.35103  1.0000
  H   H54       1.0  0.72904  0.89536  0.36846  1.0000
  C   C112      1.0  0.70436  0.84252  0.33982  1.0000
  H   H55       1.0  0.69918  0.82640  0.30171  1.0000
  C   C113      1.0  0.52691  0.76070  0.35741  1.0000
  C   C114      1.0  0.50667  0.73329  0.36493  1.0000
  C   C115      1.0  0.47945  0.72540  0.37819  1.0000
  C   C116      1.0  0.49173  0.77331  0.36945  1.0000
  C   C117      1.0  0.51875  0.78020  0.35768  1.0000
  H   H56       1.0  0.53273  0.79985  0.34829  1.0000
  H   H57       1.0  0.51184  0.71879  0.36270  1.0000
  C   C118      1.0  0.48262  0.79198  0.36425  1.0000
  C   C119      1.0  0.55388  0.76790  0.34598  1.0000
  H   H58       1.0  0.55784  0.75447  0.31920  1.0000
  H   H59       1.0  0.49549  0.81130  0.34602  1.0000
  C   C120      1.0  0.73776  0.46219  0.38170  1.0000
  C   C121      1.0  0.72910  0.48080  0.36924  1.0000
  H   H60       1.0  0.72353  0.44268  0.38815  1.0000
  C   C122      1.0  0.70132  0.47170  0.36418  1.0000
  H   H61       1.0  0.69487  0.48460  0.34632  1.0000
  C   C123      1.0  0.51631  0.26060  0.35758  1.0000
  C   C124      1.0  0.53655  0.28802  0.36497  1.0000
  C   C125      1.0  0.56380  0.29592  0.37781  1.0000
  C   C126      1.0  0.57011  0.27527  0.38168  1.0000
  C   C127      1.0  0.55150  0.24799  0.36926  1.0000
  C   C128      1.0  0.52447  0.24110  0.35779  1.0000
  H   H62       1.0  0.58962  0.28055  0.38812  1.0000
  H   H63       1.0  0.51048  0.22144  0.34865  1.0000
  H   H64       1.0  0.53137  0.30251  0.36288  1.0000
  C   C129      1.0  0.58579  0.32231  0.38585  1.0000
  C   C130      1.0  0.56060  0.22931  0.36422  1.0000
  C   C131      1.0  0.48934  0.25340  0.34633  1.0000
  H   H65       1.0  0.48536  0.26686  0.31988  1.0000
  H   H66       1.0  0.54770  0.20996  0.34643  1.0000
  H   H67       1.0  0.60352  0.32316  0.39721  1.0000
  C   C132      1.0  0.73640  0.26760  0.37781  1.0000
  H   H68       1.0  0.72979  0.22857  0.36292  1.0000
  C   C133      1.0  0.71000  0.26320  0.38585  1.0000
  H   H69       1.0  0.70915  0.28008  0.39716  1.0000
  C   C134      1.0  0.65839  0.83014  0.37423  1.0000
  C   C135      1.0  0.64339  0.83139  0.44934  1.0000
  C   C136      1.0  0.61506  0.81728  0.44610  1.0000
  H   H70       1.0  0.60477  0.81871  0.50107  1.0000
  N   N43       1.0  0.65726  0.84684  0.52718  1.0000
  O   O43       1.0  0.65154  0.83267  0.59833  1.0000
  O   O44       1.0  0.65205  0.86515  0.54149  1.0000
  N   N44       1.0  0.68537  0.84495  0.37686  1.0000
  O   O45       1.0  0.73078  0.34310  0.41691  1.0000
  C   C137      1.0  0.65908  0.42252  0.38260  1.0000
  C   C138      1.0  0.65873  0.39982  0.42003  1.0000
  C   C139      1.0  0.63478  0.37501  0.41948  1.0000
  H   H71       1.0  0.63546  0.35953  0.44983  1.0000
  N   N45       1.0  0.68229  0.40206  0.45812  1.0000
  O   O46       1.0  0.67962  0.39623  0.54226  1.0000
  O   O47       1.0  0.68919  0.38737  0.41695  1.0000
  N   N46       1.0  0.68279  0.44567  0.37819  1.0000
  C   C140      1.0  0.60979  0.23627  0.38261  1.0000
  C   C141      1.0  0.63250  0.25865  0.41991  1.0000
  C   C142      1.0  0.65731  0.25950  0.41938  1.0000
  H   H72       1.0  0.67278  0.27567  0.44963  1.0000
  N   N47       1.0  0.63026  0.27998  0.45787  1.0000
  O   O48       1.0  0.63611  0.28319  0.54198  1.0000
  O   O49       1.0  0.64494  0.30156  0.41654  1.0000
  N   N48       1.0  0.58663  0.23682  0.37820  1.0000
  C   C143      1.0  0.80978  0.58969  0.37006  1.0000
  C   C144      1.0  0.82564  0.60463  0.29393  1.0000
  C   C145      1.0  0.83999  0.63302  0.29730  1.0000
  H   H73       1.0  0.85076  0.64331  0.24084  1.0000
  N   N49       1.0  0.82595  0.59080  0.21417  1.0000
  O   O50       1.0  0.84915  0.59568  0.19560  1.0000
  O   O51       1.0  0.81676  0.59675  0.14558  1.0000
  N   N50       1.0  0.79402  0.56287  0.37245  1.0000
  C   C146      1.0  0.81252  0.22252  0.37008  1.0000
  C   C147      1.0  0.81158  0.20665  0.29397  1.0000
  C   C148      1.0  0.82563  0.19230  0.29735  1.0000
  H   H74       1.0  0.82515  0.18153  0.24090  1.0000
  N   N51       1.0  0.79744  0.20633  0.21422  1.0000
  O   O52       1.0  0.77912  0.18314  0.19568  1.0000
  O   O53       1.0  0.81259  0.21552  0.14561  1.0000
  N   N52       1.0  0.80147  0.23829  0.37244  1.0000
  C   C149      1.0  0.81165  0.98090  0.35146  1.0000
  C   C150      1.0  0.82740  0.99711  0.27736  1.0000
  C   C151      1.0  0.84025  0.02540  0.28337  1.0000
  H   H75       1.0  0.85099  0.03650  0.22807  1.0000
  N   N53       1.0  0.82955  0.98445  0.19710  1.0000
  O   O54       1.0  0.82028  0.99008  0.12792  1.0000
  O   O55       1.0  0.85337  0.99103  0.18097  1.0000
  N   N54       1.0  0.80014  0.95398  0.34546  1.0000
  C   C152      1.0  0.00689  0.81450  0.28331  1.0000
  H   H76       1.0  0.99579  0.81413  0.22799  1.0000
  C   C153      1.0  0.84141  0.80069  0.35148  1.0000
  C   C154      1.0  0.84095  0.81644  0.27735  1.0000
  C   C155      1.0  0.82550  0.82928  0.28333  1.0000
  H   H77       1.0  0.82513  0.84001  0.22803  1.0000
  N   N55       1.0  0.85577  0.81859  0.19710  1.0000
  O   O56       1.0  0.84087  0.80931  0.12792  1.0000
  O   O57       1.0  0.87299  0.84241  0.18097  1.0000
  N   N56       1.0  0.85683  0.78920  0.34549  1.0000
  C   C156      1.0  0.99188  0.19088  0.35150  1.0000
  C   C157      1.0  0.00808  0.19133  0.27738  1.0000
  N   N57       1.0  0.99542  0.17650  0.19716  1.0000
  O   O58       1.0  0.00104  0.19139  0.12795  1.0000
  O   O59       1.0  0.00201  0.15927  0.18108  1.0000
  N   N58       1.0  0.96496  0.17546  0.34552  1.0000
  C   C158      1.0  0.79323  0.42158  0.38023  1.0000
  C   C159      1.0  0.81607  0.42113  0.34585  1.0000
  C   C160      1.0  0.81732  0.39725  0.34807  1.0000
  H   H78       1.0  0.83341  0.39703  0.31997  1.0000
  N   N59       1.0  0.83776  0.44329  0.30321  1.0000
  O   O60       1.0  0.84889  0.46275  0.35731  1.0000
  O   O61       1.0  0.83054  0.45040  0.23222  1.0000
  N   N60       1.0  0.79113  0.44418  0.37178  1.0000
  C   C161      1.0  0.75060  0.85166  0.34330  1.0000
  C   C162      1.0  0.77857  0.86926  0.34739  1.0000
  C   C163      1.0  0.78770  0.89694  0.35786  1.0000
  C   C164      1.0  0.77000  0.90710  0.36648  1.0000
  C   C165      1.0  0.74218  0.88843  0.36362  1.0000
  H   H79       1.0  0.80781  0.91004  0.36049  1.0000
  H   H80       1.0  0.74372  0.83178  0.33248  1.0000
  C   C166      1.0  0.79700  0.86041  0.33396  1.0000
  C   C167      1.0  0.77905  0.93436  0.38192  1.0000
  H   H81       1.0  0.76785  0.93878  0.42181  1.0000
  H   H82       1.0  0.81330  0.87217  0.29775  1.0000
  C   C168      1.0  0.88189  0.72092  0.35121  1.0000
  C   C169      1.0  0.90962  0.73966  0.34341  1.0000
  C   C170      1.0  0.91999  0.76763  0.34748  1.0000
  C   C171      1.0  0.90145  0.77676  0.35794  1.0000
  C   C172      1.0  0.87359  0.75907  0.36657  1.0000
  C   C173      1.0  0.86443  0.73124  0.36378  1.0000
  H   H83       1.0  0.90845  0.79687  0.36053  1.0000
  H   H84       1.0  0.84437  0.71811  0.36858  1.0000
  H   H85       1.0  0.92261  0.73277  0.33259  1.0000
  C   C174      1.0  0.94727  0.78605  0.33400  1.0000
  C   C175      1.0  0.85537  0.76811  0.38201  1.0000
  C   C176      1.0  0.87252  0.69342  0.33995  1.0000
  H   H86       1.0  0.88346  0.68825  0.30183  1.0000
  H   H87       1.0  0.83976  0.75692  0.42192  1.0000
  H   H88       1.0  0.95182  0.80235  0.29776  1.0000
  C   C177      1.0  0.87163  0.15040  0.35122  1.0000
  C   C178      1.0  0.86264  0.12268  0.34349  1.0000
  C   C179      1.0  0.88024  0.11231  0.34755  1.0000
  C   C180      1.0  0.90792  0.13085  0.35794  1.0000
  C   C181      1.0  0.91808  0.15871  0.36663  1.0000
  C   C182      1.0  0.89941  0.16787  0.36381  1.0000
  H   H89       1.0  0.92103  0.12385  0.36052  1.0000
  H   H90       1.0  0.90633  0.18793  0.36863  1.0000
  H   H91       1.0  0.84276  0.10968  0.33265  1.0000
  C   C183      1.0  0.87139  0.08503  0.33401  1.0000
  C   C184      1.0  0.94534  0.17693  0.38200  1.0000
  C   C185      1.0  0.85349  0.15977  0.34006  1.0000
  H   H92       1.0  0.83734  0.14880  0.30210  1.0000
  H   H93       1.0  0.94977  0.19256  0.42185  1.0000
  H   H94       1.0  0.88315  0.08049  0.29782  1.0000
  C   C186      1.0  0.77689  0.51598  0.35761  1.0000
  C   C187      1.0  0.78407  0.49574  0.36502  1.0000
  C   C188      1.0  0.76472  0.46850  0.37785  1.0000
  C   C189      1.0  0.74924  0.50783  0.35778  1.0000
  H   H95       1.0  0.74357  0.52182  0.34862  1.0000
  H   H96       1.0  0.80375  0.50092  0.36298  1.0000
  C   C190      1.0  0.76912  0.44650  0.38594  1.0000
  C   C191      1.0  0.79667  0.54296  0.34640  1.0000
  H   H97       1.0  0.81410  0.54693  0.31990  1.0000
  H   H98       1.0  0.75224  0.42878  0.39730  1.0000
  C   C192      1.0  0.77171  0.25542  0.35765  1.0000
  C   C193      1.0  0.74429  0.24824  0.36502  1.0000
  C   C194      1.0  0.75705  0.29456  0.38172  1.0000
  C   C195      1.0  0.78432  0.30321  0.36931  1.0000
  C   C196      1.0  0.79121  0.28307  0.35784  1.0000
  H   H99       1.0  0.75177  0.30878  0.38816  1.0000
  H   H100      1.0  0.81087  0.28874  0.34871  1.0000
  C   C197      1.0  0.80301  0.33100  0.36431  1.0000
  C   C198      1.0  0.77890  0.23564  0.34638  1.0000
  H   H101      1.0  0.76544  0.21821  0.31997  1.0000
  H   H102      1.0  0.82235  0.33744  0.34642  1.0000
  C   C199      1.0  0.83892  0.64745  0.37443  1.0000
  C   C200      1.0  0.82266  0.63247  0.44951  1.0000
  C   C201      1.0  0.80842  0.60413  0.44628  1.0000
  H   H103      1.0  0.79669  0.59385  0.50122  1.0000
  N   N61       1.0  0.82106  0.64633  0.52730  1.0000
  O   O62       1.0  0.82948  0.64061  0.59851  1.0000
  O   O63       1.0  0.79754  0.64114  0.54151  1.0000
  N   N62       1.0  0.85111  0.67443  0.37704  1.0000
  C   C202      1.0  0.84112  0.19337  0.37448  1.0000
  C   C203      1.0  0.84243  0.20966  0.44950  1.0000
  C   C204      1.0  0.82834  0.22390  0.44627  1.0000
  H   H104      1.0  0.82980  0.23564  0.50118  1.0000
  N   N63       1.0  0.85792  0.21128  0.52726  1.0000
  O   O64       1.0  0.84380  0.20288  0.59853  1.0000
  O   O65       1.0  0.87625  0.23480  0.54136  1.0000
  N   N64       1.0  0.85594  0.18120  0.37706  1.0000
  C   C205      1.0  0.83829  0.03863  0.36245  1.0000
  C   C206      1.0  0.82253  0.02243  0.43654  1.0000
  C   C207      1.0  0.80970  0.99414  0.43057  1.0000
  H   H105      1.0  0.79894  0.98306  0.48584  1.0000
  N   N65       1.0  0.82034  0.03511  0.51669  1.0000
  O   O66       1.0  0.82959  0.02950  0.58598  1.0000
  O   O67       1.0  0.79650  0.02850  0.53270  1.0000
  N   N66       1.0  0.84970  0.06554  0.36787  1.0000
  C   C208      1.0  0.99367  0.79934  0.36243  1.0000
  C   C209      1.0  0.00986  0.79979  0.43656  1.0000
  N   N67       1.0  0.99718  0.78495  0.51675  1.0000
  O   O68       1.0  0.00279  0.79983  0.58598  1.0000
  O   O69       1.0  0.00380  0.76773  0.53285  1.0000
  N   N68       1.0  0.96675  0.78384  0.36786  1.0000
  C   C210      1.0  0.81030  0.82732  0.36239  1.0000
  C   C211      1.0  0.81074  0.81156  0.43651  1.0000
  C   C212      1.0  0.82622  0.79874  0.43057  1.0000
  H   H106      1.0  0.82654  0.78799  0.48585  1.0000
  N   N69       1.0  0.79587  0.80937  0.51664  1.0000
  O   O70       1.0  0.81072  0.81862  0.58594  1.0000
  O   O71       1.0  0.77865  0.78552  0.53265  1.0000
  N   N70       1.0  0.79479  0.83871  0.36780  1.0000
  C   C213      1.0  0.00512  0.20609  0.43055  1.0000
  H   H107      1.0  0.99405  0.20577  0.48584  1.0000
  C   C214      1.0  0.79605  0.37322  0.38269  1.0000
  C   C215      1.0  0.77369  0.37357  0.42008  1.0000
  C   C216      1.0  0.77283  0.39752  0.41954  1.0000
  H   H108      1.0  0.75667  0.39683  0.44986  1.0000
  N   N71       1.0  0.75238  0.35000  0.45814  1.0000
  O   O72       1.0  0.74919  0.35266  0.54226  1.0000
  N   N72       1.0  0.79550  0.34952  0.37830  1.0000
