data_image0
_chemical_formula_structural       C7H2C2O2C4H2C2H2NHC4H2C2H2NHC5HC4H3C2O2C6H4NHC6H4NHC7H2C2O2C4H2C2H2NHC4H2C2H2NHC5HC4H3C2O2C6H4NHC6H4NHC7H2C2O2C4H2C2H2NHC4H2C2H2NHC5HC4H3C2O2C6H4NHC6H4NHC7H2C2O2C4H2C2H2NHC4H2C2H2NHC5HC4H3C2O2C6H4NHC6H4NH
_chemical_formula_sum              "C176 H104 O16 N16"
_cell_length_a       39.5084
_cell_length_b       39.5084
_cell_length_c       15.0477
_cell_angle_alpha    90
_cell_angle_beta     90
_cell_angle_gamma    90

_space_group_name_H-M_alt    "P 1"
_space_group_IT_number       1

loop_
  _space_group_symop_operation_xyz
  'x, y, z'

loop_
  _atom_site_type_symbol
  _atom_site_label
  _atom_site_symmetry_multiplicity
  _atom_site_fract_x
  _atom_site_fract_y
  _atom_site_fract_z
  _atom_site_occupancy
  C   C1        1.0  0.04492  0.00319  0.37098  1.0000
  C   C2        1.0  0.07049  0.02851  0.37175  1.0000
  C   C3        1.0  0.06199  0.06113  0.34125  1.0000
  C   C4        1.0  0.48601  0.48513  0.33929  1.0000
  C   C5        1.0  0.42708  0.46715  0.30801  1.0000
  C   C6        1.0  0.45280  0.49249  0.30682  1.0000
  C   C7        1.0  0.44739  0.02440  0.26689  1.0000
  H   H1        1.0  0.07369  0.46488  0.43609  1.0000
  H   H2        1.0  0.42524  0.02988  0.23495  1.0000
  C   C8        1.0  0.10482  0.02271  0.39498  1.0000
  C   C9        1.0  0.39295  0.47190  0.28057  1.0000
  O   O1        1.0  0.12198  0.04906  0.43158  1.0000
  O   O2        1.0  0.37658  0.44402  0.24981  1.0000
  C   C10       1.0  0.50115  0.33939  0.34902  1.0000
  C   C11       1.0  0.49878  0.26645  0.32815  1.0000
  C   C12       1.0  0.01152  0.28820  0.26054  1.0000
  C   C13       1.0  0.01336  0.32351  0.27124  1.0000
  H   H3        1.0  0.51789  0.27927  0.19925  1.0000
  H   H4        1.0  0.02082  0.33784  0.21801  1.0000
  C   C14       1.0  0.01082  0.17752  0.23908  1.0000
  C   C15       1.0  0.01137  0.21298  0.24543  1.0000
  H   H5        1.0  0.02268  0.16673  0.18587  1.0000
  H   H6        1.0  0.02567  0.22520  0.19908  1.0000
  N   N1        1.0  0.99848  0.37392  0.35106  1.0000
  H   H7        1.0  0.01104  0.38619  0.30526  1.0000
  C   C16       1.0  0.15744  0.49569  0.34895  1.0000
  C   C17       1.0  0.23037  0.49807  0.32804  1.0000
  C   C18       1.0  0.20862  0.98535  0.26042  1.0000
  C   C19       1.0  0.17331  0.98352  0.27114  1.0000
  H   H8        1.0  0.21755  0.47899  0.19912  1.0000
  H   H9        1.0  0.15898  0.97606  0.21791  1.0000
  C   C20       1.0  0.31931  0.98599  0.23901  1.0000
  C   C21       1.0  0.28385  0.98545  0.24533  1.0000
  H   H10       1.0  0.33009  0.97412  0.18581  1.0000
  H   H11       1.0  0.27162  0.97115  0.19901  1.0000
  N   N2        1.0  0.12291  0.99836  0.35103  1.0000
  H   H12       1.0  0.11063  0.98581  0.30522  1.0000
  C   C22       1.0  0.01169  0.01081  0.33931  1.0000
  C   C23       1.0  0.02967  0.06975  0.30813  1.0000
  C   C24       1.0  0.00434  0.04403  0.30687  1.0000
  C   C25       1.0  0.05103  0.47077  0.40716  1.0000
  C   C26       1.0  0.47242  0.04944  0.26692  1.0000
  H   H13       1.0  0.08043  0.07936  0.34226  1.0000
  C   C27       1.0  0.49364  0.45190  0.37095  1.0000
  C   C28       1.0  0.46831  0.42634  0.37170  1.0000
  C   C29       1.0  0.43570  0.43484  0.34116  1.0000
  C   C30       1.0  0.02606  0.44578  0.40710  1.0000
  H   H14       1.0  0.41747  0.41639  0.34214  1.0000
  H   H15       1.0  0.03194  0.42313  0.43610  1.0000
  H   H16       1.0  0.46695  0.07160  0.23499  1.0000
  C   C31       1.0  0.02491  0.10389  0.28073  1.0000
  C   C32       1.0  0.47411  0.39200  0.39494  1.0000
  O   O3        1.0  0.05280  0.12026  0.25000  1.0000
  O   O4        1.0  0.44775  0.37484  0.43149  1.0000
  C   C33       1.0  0.49101  0.31802  0.41945  1.0000
  C   C34       1.0  0.49003  0.28269  0.40934  1.0000
  C   C35       1.0  0.49561  0.23057  0.31667  1.0000
  C   C36       1.0  0.47626  0.21005  0.37555  1.0000
  C   C37       1.0  0.47549  0.17455  0.36891  1.0000
  C   C38       1.0  0.49480  0.15725  0.30419  1.0000
  H   H17       1.0  0.46198  0.22042  0.42501  1.0000
  H   H18       1.0  0.46254  0.16125  0.41641  1.0000
  H   H19       1.0  0.98473  0.32798  0.47993  1.0000
  H   H20       1.0  0.48328  0.26916  0.46428  1.0000
  N   N3        1.0  0.49809  0.12277  0.31003  1.0000
  H   H21       1.0  0.48298  0.11135  0.35174  1.0000
  C   C39       1.0  0.17881  0.50582  0.41937  1.0000
  C   C40       1.0  0.21414  0.50681  0.40924  1.0000
  C   C41       1.0  0.26625  0.50123  0.31656  1.0000
  C   C42       1.0  0.28678  0.52058  0.37543  1.0000
  C   C43       1.0  0.32228  0.52134  0.36879  1.0000
  C   C44       1.0  0.33958  0.50202  0.30409  1.0000
  H   H22       1.0  0.27641  0.53488  0.42487  1.0000
  H   H23       1.0  0.33558  0.53430  0.41628  1.0000
  H   H24       1.0  0.16886  0.01209  0.47988  1.0000
  H   H25       1.0  0.22768  0.51354  0.46419  1.0000
  N   N4        1.0  0.37407  0.49871  0.30993  1.0000
  H   H26       1.0  0.38543  0.51387  0.35161  1.0000
  C   C45       1.0  0.04492  0.50319  0.37098  1.0000
  C   C46       1.0  0.07049  0.52851  0.37175  1.0000
  C   C47       1.0  0.06199  0.56113  0.34125  1.0000
  C   C48       1.0  0.48601  0.98513  0.33929  1.0000
  C   C49       1.0  0.42708  0.96715  0.30801  1.0000
  C   C50       1.0  0.45280  0.99249  0.30682  1.0000
  C   C51       1.0  0.44739  0.52440  0.26689  1.0000
  H   H27       1.0  0.07369  0.96488  0.43609  1.0000
  H   H28       1.0  0.42524  0.52988  0.23495  1.0000
  C   C52       1.0  0.10482  0.52271  0.39498  1.0000
  C   C53       1.0  0.39295  0.97191  0.28057  1.0000
  O   O5        1.0  0.12198  0.54907  0.43158  1.0000
  O   O6        1.0  0.37658  0.94402  0.24981  1.0000
  C   C54       1.0  0.50115  0.83939  0.34902  1.0000
  C   C55       1.0  0.49878  0.76646  0.32815  1.0000
  C   C56       1.0  0.01152  0.78820  0.26054  1.0000
  C   C57       1.0  0.01336  0.82351  0.27124  1.0000
  H   H29       1.0  0.51789  0.77927  0.19925  1.0000
  H   H30       1.0  0.02082  0.83784  0.21801  1.0000
  C   C58       1.0  0.01082  0.67752  0.23908  1.0000
  C   C59       1.0  0.01137  0.71298  0.24543  1.0000
  H   H31       1.0  0.02268  0.66673  0.18587  1.0000
  H   H32       1.0  0.02567  0.72520  0.19908  1.0000
  N   N5        1.0  0.99848  0.87392  0.35106  1.0000
  H   H33       1.0  0.01104  0.88619  0.30526  1.0000
  C   C60       1.0  0.15744  0.99569  0.34895  1.0000
  C   C61       1.0  0.23037  0.99807  0.32804  1.0000
  C   C62       1.0  0.20862  0.48535  0.26042  1.0000
  C   C63       1.0  0.17331  0.48351  0.27114  1.0000
  H   H34       1.0  0.21755  0.97900  0.19912  1.0000
  H   H35       1.0  0.15898  0.47607  0.21791  1.0000
  C   C64       1.0  0.31931  0.48600  0.23901  1.0000
  C   C65       1.0  0.28385  0.48545  0.24533  1.0000
  H   H36       1.0  0.33009  0.47412  0.18581  1.0000
  H   H37       1.0  0.27162  0.47115  0.19901  1.0000
  N   N6        1.0  0.12291  0.49836  0.35103  1.0000
  H   H38       1.0  0.11063  0.48581  0.30522  1.0000
  C   C66       1.0  0.01169  0.51081  0.33931  1.0000
  C   C67       1.0  0.02967  0.56975  0.30813  1.0000
  C   C68       1.0  0.00434  0.54403  0.30687  1.0000
  C   C69       1.0  0.05103  0.97077  0.40716  1.0000
  C   C70       1.0  0.47242  0.54944  0.26692  1.0000
  H   H39       1.0  0.08043  0.57936  0.34226  1.0000
  C   C71       1.0  0.49364  0.95190  0.37095  1.0000
  C   C72       1.0  0.46831  0.92634  0.37170  1.0000
  C   C73       1.0  0.43570  0.93484  0.34116  1.0000
  C   C74       1.0  0.02606  0.94578  0.40710  1.0000
  H   H40       1.0  0.41747  0.91639  0.34214  1.0000
  H   H41       1.0  0.03194  0.92313  0.43610  1.0000
  H   H42       1.0  0.46695  0.57159  0.23499  1.0000
  C   C75       1.0  0.02491  0.60389  0.28073  1.0000
  C   C76       1.0  0.47411  0.89200  0.39494  1.0000
  O   O7        1.0  0.05280  0.62026  0.25000  1.0000
  O   O8        1.0  0.44775  0.87484  0.43149  1.0000
  C   C77       1.0  0.49101  0.81802  0.41945  1.0000
  C   C78       1.0  0.49003  0.78269  0.40934  1.0000
  C   C79       1.0  0.49561  0.73058  0.31667  1.0000
  C   C80       1.0  0.47626  0.71005  0.37555  1.0000
  C   C81       1.0  0.47549  0.67455  0.36891  1.0000
  C   C82       1.0  0.49480  0.65725  0.30419  1.0000
  H   H43       1.0  0.46198  0.72042  0.42501  1.0000
  H   H44       1.0  0.46254  0.66125  0.41641  1.0000
  H   H45       1.0  0.98473  0.82798  0.47993  1.0000
  H   H46       1.0  0.48328  0.76916  0.46428  1.0000
  N   N7        1.0  0.49809  0.62277  0.31003  1.0000
  H   H47       1.0  0.48298  0.61135  0.35174  1.0000
  C   C83       1.0  0.17881  0.00582  0.41937  1.0000
  C   C84       1.0  0.21414  0.00681  0.40924  1.0000
  C   C85       1.0  0.26625  0.00123  0.31656  1.0000
  C   C86       1.0  0.28678  0.02058  0.37543  1.0000
  C   C87       1.0  0.32228  0.02134  0.36879  1.0000
  C   C88       1.0  0.33958  0.00202  0.30409  1.0000
  H   H48       1.0  0.27641  0.03488  0.42487  1.0000
  H   H49       1.0  0.33558  0.03430  0.41628  1.0000
  H   H50       1.0  0.16886  0.51209  0.47988  1.0000
  H   H51       1.0  0.22768  0.01354  0.46419  1.0000
  N   N8        1.0  0.37407  0.99871  0.30993  1.0000
  H   H52       1.0  0.38543  0.01387  0.35161  1.0000
  C   C89       1.0  0.54492  0.00319  0.37098  1.0000
  C   C90       1.0  0.57049  0.02851  0.37175  1.0000
  C   C91       1.0  0.56199  0.06113  0.34125  1.0000
  C   C92       1.0  0.98601  0.48513  0.33929  1.0000
  C   C93       1.0  0.92709  0.46715  0.30801  1.0000
  C   C94       1.0  0.95280  0.49249  0.30682  1.0000
  C   C95       1.0  0.94739  0.02440  0.26689  1.0000
  H   H53       1.0  0.57369  0.46488  0.43609  1.0000
  H   H54       1.0  0.92524  0.02988  0.23495  1.0000
  C   C96       1.0  0.60482  0.02271  0.39498  1.0000
  C   C97       1.0  0.89295  0.47190  0.28057  1.0000
  O   O9        1.0  0.62198  0.04906  0.43158  1.0000
  O   O10       1.0  0.87658  0.44402  0.24981  1.0000
  C   C98       1.0  0.00115  0.33939  0.34902  1.0000
  C   C99       1.0  0.99878  0.26645  0.32815  1.0000
  C   C100      1.0  0.51152  0.28820  0.26054  1.0000
  C   C101      1.0  0.51336  0.32351  0.27124  1.0000
  H   H55       1.0  0.01789  0.27927  0.19925  1.0000
  H   H56       1.0  0.52082  0.33784  0.21801  1.0000
  C   C102      1.0  0.51082  0.17752  0.23908  1.0000
  C   C103      1.0  0.51137  0.21298  0.24543  1.0000
  H   H57       1.0  0.52268  0.16673  0.18587  1.0000
  H   H58       1.0  0.52567  0.22520  0.19908  1.0000
  N   N9        1.0  0.49848  0.37392  0.35106  1.0000
  H   H59       1.0  0.51104  0.38619  0.30526  1.0000
  C   C104      1.0  0.65744  0.49569  0.34895  1.0000
  C   C105      1.0  0.73037  0.49807  0.32804  1.0000
  C   C106      1.0  0.70862  0.98535  0.26042  1.0000
  C   C107      1.0  0.67331  0.98352  0.27114  1.0000
  H   H60       1.0  0.71755  0.47899  0.19912  1.0000
  H   H61       1.0  0.65898  0.97606  0.21791  1.0000
  C   C108      1.0  0.81931  0.98599  0.23901  1.0000
  C   C109      1.0  0.78385  0.98545  0.24533  1.0000
  H   H62       1.0  0.83009  0.97412  0.18581  1.0000
  H   H63       1.0  0.77162  0.97115  0.19901  1.0000
  N   N10       1.0  0.62291  0.99836  0.35103  1.0000
  H   H64       1.0  0.61063  0.98581  0.30522  1.0000
  C   C110      1.0  0.51169  0.01081  0.33931  1.0000
  C   C111      1.0  0.52967  0.06975  0.30813  1.0000
  C   C112      1.0  0.50433  0.04403  0.30687  1.0000
  C   C113      1.0  0.55103  0.47077  0.40716  1.0000
  C   C114      1.0  0.97242  0.04944  0.26692  1.0000
  H   H65       1.0  0.58043  0.07936  0.34226  1.0000
  C   C115      1.0  0.99364  0.45190  0.37095  1.0000
  C   C116      1.0  0.96831  0.42634  0.37170  1.0000
  C   C117      1.0  0.93570  0.43484  0.34116  1.0000
  C   C118      1.0  0.52606  0.44578  0.40710  1.0000
  H   H66       1.0  0.91747  0.41639  0.34214  1.0000
  H   H67       1.0  0.53194  0.42313  0.43610  1.0000
  H   H68       1.0  0.96695  0.07160  0.23499  1.0000
  C   C119      1.0  0.52491  0.10389  0.28073  1.0000
  C   C120      1.0  0.97411  0.39200  0.39494  1.0000
  O   O11       1.0  0.55280  0.12026  0.25000  1.0000
  O   O12       1.0  0.94775  0.37484  0.43149  1.0000
  C   C121      1.0  0.99101  0.31802  0.41945  1.0000
  C   C122      1.0  0.99003  0.28269  0.40934  1.0000
  C   C123      1.0  0.99561  0.23057  0.31667  1.0000
  C   C124      1.0  0.97626  0.21005  0.37555  1.0000
  C   C125      1.0  0.97549  0.17455  0.36891  1.0000
  C   C126      1.0  0.99481  0.15725  0.30419  1.0000
  H   H69       1.0  0.96198  0.22042  0.42501  1.0000
  H   H70       1.0  0.96254  0.16125  0.41641  1.0000
  H   H71       1.0  0.48472  0.32798  0.47993  1.0000
  H   H72       1.0  0.98328  0.26916  0.46428  1.0000
  N   N11       1.0  0.99809  0.12277  0.31003  1.0000
  H   H73       1.0  0.98298  0.11135  0.35174  1.0000
  C   C127      1.0  0.67881  0.50582  0.41937  1.0000
  C   C128      1.0  0.71414  0.50681  0.40924  1.0000
  C   C129      1.0  0.76625  0.50123  0.31656  1.0000
  C   C130      1.0  0.78678  0.52058  0.37543  1.0000
  C   C131      1.0  0.82228  0.52134  0.36879  1.0000
  C   C132      1.0  0.83958  0.50202  0.30409  1.0000
  H   H74       1.0  0.77641  0.53488  0.42487  1.0000
  H   H75       1.0  0.83558  0.53430  0.41628  1.0000
  H   H76       1.0  0.66886  0.01209  0.47988  1.0000
  H   H77       1.0  0.72768  0.51354  0.46419  1.0000
  N   N12       1.0  0.87407  0.49871  0.30993  1.0000
  H   H78       1.0  0.88544  0.51387  0.35161  1.0000
  C   C133      1.0  0.54492  0.50319  0.37098  1.0000
  C   C134      1.0  0.57049  0.52851  0.37175  1.0000
  C   C135      1.0  0.56199  0.56113  0.34125  1.0000
  C   C136      1.0  0.98601  0.98513  0.33929  1.0000
  C   C137      1.0  0.92709  0.96715  0.30801  1.0000
  C   C138      1.0  0.95280  0.99249  0.30682  1.0000
  C   C139      1.0  0.94739  0.52440  0.26689  1.0000
  H   H79       1.0  0.57369  0.96488  0.43609  1.0000
  H   H80       1.0  0.92524  0.52988  0.23495  1.0000
  C   C140      1.0  0.60482  0.52271  0.39498  1.0000
  C   C141      1.0  0.89295  0.97191  0.28057  1.0000
  O   O13       1.0  0.62198  0.54907  0.43158  1.0000
  O   O14       1.0  0.87658  0.94402  0.24981  1.0000
  C   C142      1.0  0.00115  0.83939  0.34902  1.0000
  C   C143      1.0  0.99878  0.76646  0.32815  1.0000
  C   C144      1.0  0.51152  0.78820  0.26054  1.0000
  C   C145      1.0  0.51336  0.82351  0.27124  1.0000
  H   H81       1.0  0.01789  0.77927  0.19925  1.0000
  H   H82       1.0  0.52082  0.83784  0.21801  1.0000
  C   C146      1.0  0.51082  0.67752  0.23908  1.0000
  C   C147      1.0  0.51137  0.71298  0.24543  1.0000
  H   H83       1.0  0.52268  0.66673  0.18587  1.0000
  H   H84       1.0  0.52567  0.72520  0.19908  1.0000
  N   N13       1.0  0.49848  0.87392  0.35106  1.0000
  H   H85       1.0  0.51104  0.88619  0.30526  1.0000
  C   C148      1.0  0.65744  0.99569  0.34895  1.0000
  C   C149      1.0  0.73037  0.99807  0.32804  1.0000
  C   C150      1.0  0.70862  0.48535  0.26042  1.0000
  C   C151      1.0  0.67331  0.48351  0.27114  1.0000
  H   H86       1.0  0.71755  0.97900  0.19912  1.0000
  H   H87       1.0  0.65898  0.47607  0.21791  1.0000
  C   C152      1.0  0.81931  0.48600  0.23901  1.0000
  C   C153      1.0  0.78385  0.48545  0.24533  1.0000
  H   H88       1.0  0.83009  0.47412  0.18581  1.0000
  H   H89       1.0  0.77162  0.47115  0.19901  1.0000
  N   N14       1.0  0.62291  0.49836  0.35103  1.0000
  H   H90       1.0  0.61063  0.48581  0.30522  1.0000
  C   C154      1.0  0.51169  0.51081  0.33931  1.0000
  C   C155      1.0  0.52967  0.56975  0.30813  1.0000
  C   C156      1.0  0.50433  0.54403  0.30687  1.0000
  C   C157      1.0  0.55103  0.97077  0.40716  1.0000
  C   C158      1.0  0.97242  0.54944  0.26692  1.0000
  H   H91       1.0  0.58043  0.57936  0.34226  1.0000
  C   C159      1.0  0.99364  0.95190  0.37095  1.0000
  C   C160      1.0  0.96831  0.92634  0.37170  1.0000
  C   C161      1.0  0.93570  0.93484  0.34116  1.0000
  C   C162      1.0  0.52606  0.94578  0.40710  1.0000
  H   H92       1.0  0.91747  0.91639  0.34214  1.0000
  H   H93       1.0  0.53194  0.92313  0.43610  1.0000
  H   H94       1.0  0.96695  0.57159  0.23499  1.0000
  C   C163      1.0  0.52491  0.60389  0.28073  1.0000
  C   C164      1.0  0.97411  0.89200  0.39494  1.0000
  O   O15       1.0  0.55280  0.62026  0.25000  1.0000
  O   O16       1.0  0.94775  0.87484  0.43149  1.0000
  C   C165      1.0  0.99101  0.81802  0.41945  1.0000
  C   C166      1.0  0.99003  0.78269  0.40934  1.0000
  C   C167      1.0  0.99561  0.73058  0.31667  1.0000
  C   C168      1.0  0.97626  0.71005  0.37555  1.0000
  C   C169      1.0  0.97549  0.67455  0.36891  1.0000
  C   C170      1.0  0.99481  0.65725  0.30419  1.0000
  H   H95       1.0  0.96198  0.72042  0.42501  1.0000
  H   H96       1.0  0.96254  0.66125  0.41641  1.0000
  H   H97       1.0  0.48472  0.82798  0.47993  1.0000
  H   H98       1.0  0.98328  0.76916  0.46428  1.0000
  N   N15       1.0  0.99809  0.62277  0.31003  1.0000
  H   H99       1.0  0.98298  0.61135  0.35174  1.0000
  C   C171      1.0  0.67881  0.00582  0.41937  1.0000
  C   C172      1.0  0.71414  0.00681  0.40924  1.0000
  C   C173      1.0  0.76625  0.00123  0.31656  1.0000
  C   C174      1.0  0.78678  0.02058  0.37543  1.0000
  C   C175      1.0  0.82228  0.02134  0.36879  1.0000
  C   C176      1.0  0.83958  0.00202  0.30409  1.0000
  H   H100      1.0  0.77641  0.03488  0.42487  1.0000
  H   H101      1.0  0.83558  0.03430  0.41628  1.0000
  H   H102      1.0  0.66886  0.51209  0.47988  1.0000
  H   H103      1.0  0.72768  0.01354  0.46419  1.0000
  N   N16       1.0  0.87407  0.99871  0.30993  1.0000
  H   H104      1.0  0.88544  0.01387  0.35161  1.0000
