data_image0
_chemical_formula_structural       C4HC4H2NO2C4HC4H2NO2C4HC4H2NO2C4H4C4H4C4H4C24H15C24H15C24H15C24H15C4H4C4H4C4H4C4HC4H2NO2C4HC4H2NO2C4HC4H2NO2
_chemical_formula_sum              "C168 H102 N6 O12"
_cell_length_a       57.5858
_cell_length_b       57.5858
_cell_length_c       14.9602
_cell_angle_alpha    90
_cell_angle_beta     90
_cell_angle_gamma    120

_space_group_name_H-M_alt    "P 1"
_space_group_IT_number       1

loop_
  _space_group_symop_operation_xyz
  'x, y, z'

loop_
  _atom_site_type_symbol
  _atom_site_label
  _atom_site_symmetry_multiplicity
  _atom_site_fract_x
  _atom_site_fract_y
  _atom_site_fract_z
  _atom_site_occupancy
  C   C1        1.0  0.28424  0.14259  0.33307  1.0000
  C   C2        1.0  0.22636  0.11386  0.33347  1.0000
  C   C3        1.0  0.24087  0.12820  0.25621  1.0000
  C   C4        1.0  0.26931  0.14194  0.25691  1.0000
  H   H1        1.0  0.27913  0.15150  0.19964  1.0000
  C   C5        1.0  0.19760  0.09910  0.33677  1.0000
  C   C6        1.0  0.13972  0.06919  0.34375  1.0000
  C   C7        1.0  0.15410  0.06692  0.27047  1.0000
  C   C8        1.0  0.18230  0.08115  0.26772  1.0000
  H   H2        1.0  0.14420  0.05503  0.21694  1.0000
  H   H3        1.0  0.19158  0.07809  0.21443  1.0000
  N   N1        1.0  0.22700  0.12969  0.18013  1.0000
  O   O1        1.0  0.23210  0.12041  0.11156  1.0000
  O   O2        1.0  0.23265  0.15340  0.16444  1.0000
  C   C9        1.0  0.85196  0.14289  0.32067  1.0000
  C   C10       1.0  0.88049  0.11355  0.31605  1.0000
  C   C11       1.0  0.86627  0.11447  0.23958  1.0000
  C   C12       1.0  0.85263  0.12925  0.24277  1.0000
  H   H4        1.0  0.84309  0.13001  0.18610  1.0000
  C   C13       1.0  0.89484  0.09911  0.31732  1.0000
  C   C14       1.0  0.92359  0.06992  0.32031  1.0000
  C   C15       1.0  0.92637  0.08725  0.24864  1.0000
  C   C16       1.0  0.91267  0.10179  0.24779  1.0000
  H   H5        1.0  0.93821  0.08933  0.19487  1.0000
  H   H6        1.0  0.91603  0.11455  0.19555  1.0000
  N   N2        1.0  0.86474  0.09972  0.16179  1.0000
  O   O3        1.0  0.87416  0.11467  0.09454  1.0000
  O   O4        1.0  0.84102  0.08190  0.14512  1.0000
  C   C17       1.0  0.85156  0.70958  0.32982  1.0000
  C   C18       1.0  0.88039  0.76701  0.32877  1.0000
  C   C19       1.0  0.87176  0.75259  0.24711  1.0000
  C   C20       1.0  0.85759  0.72416  0.24878  1.0000
  H   H7        1.0  0.85128  0.71406  0.18942  1.0000
  C   C21       1.0  0.89454  0.79555  0.33115  1.0000
  C   C22       1.0  0.92303  0.85285  0.33473  1.0000
  C   C23       1.0  0.89611  0.83836  0.30508  1.0000
  C   C24       1.0  0.88214  0.81014  0.30259  1.0000
  H   H8        1.0  0.88659  0.84828  0.28316  1.0000
  H   H9        1.0  0.86273  0.80030  0.28038  1.0000
  N   N3        1.0  0.87808  0.76680  0.16517  1.0000
  O   O5        1.0  0.85728  0.76153  0.12207  1.0000
  O   O6        1.0  0.89270  0.76147  0.11705  1.0000
  C   C25       1.0  0.52634  0.15995  0.26208  1.0000
  C   C26       1.0  0.54873  0.15637  0.25696  1.0000
  C   C27       1.0  0.60776  0.17503  0.27590  1.0000
  C   C28       1.0  0.63327  0.17740  0.27462  1.0000
  H   H10       1.0  0.60521  0.18910  0.24245  1.0000
  H   H11       1.0  0.64842  0.19304  0.24037  1.0000
  H   H12       1.0  0.51885  0.16288  0.20384  1.0000
  H   H13       1.0  0.55620  0.15615  0.19505  1.0000
  C   C29       1.0  0.83393  0.36712  0.26236  1.0000
  C   C30       1.0  0.83740  0.39304  0.25682  1.0000
  C   C31       1.0  0.81885  0.43349  0.27398  1.0000
  C   C32       1.0  0.81656  0.45668  0.27182  1.0000
  H   H14       1.0  0.80480  0.41685  0.24057  1.0000
  H   H15       1.0  0.80100  0.45619  0.23705  1.0000
  H   H16       1.0  0.83104  0.35665  0.20424  1.0000
  H   H17       1.0  0.83767  0.40066  0.19475  1.0000
  C   C33       1.0  0.62725  0.46816  0.26481  1.0000
  C   C34       1.0  0.60133  0.44570  0.25926  1.0000
  C   C35       1.0  0.56096  0.38661  0.27694  1.0000
  C   C36       1.0  0.53781  0.36109  0.27524  1.0000
  H   H18       1.0  0.57762  0.38919  0.24368  1.0000
  H   H19       1.0  0.53833  0.34598  0.24087  1.0000
  H   H20       1.0  0.63772  0.47577  0.20670  1.0000
  H   H21       1.0  0.59371  0.43833  0.19719  1.0000
  C   C37       1.0  0.98081  0.01119  0.32985  1.0000
  C   C38       1.0  0.00915  0.02469  0.33751  1.0000
  C   C39       1.0  0.02380  0.01099  0.34502  1.0000
  C   C40       1.0  0.00882  0.98260  0.34723  1.0000
  C   C41       1.0  0.98059  0.96794  0.33744  1.0000
  C   C42       1.0  0.96719  0.98278  0.32780  1.0000
  C   C43       1.0  0.05270  0.02522  0.34803  1.0000
  C   C44       1.0  0.06765  0.05061  0.38971  1.0000
  C   C45       1.0  0.09590  0.06492  0.38823  1.0000
  C   C46       1.0  0.11081  0.05442  0.34655  1.0000
  C   C47       1.0  0.09584  0.02876  0.30666  1.0000
  C   C48       1.0  0.06762  0.01473  0.30637  1.0000
  C   C49       1.0  0.96637  0.02565  0.32527  1.0000
  C   C50       1.0  0.97720  0.05097  0.28282  1.0000
  C   C51       1.0  0.96342  0.06543  0.28182  1.0000
  C   C52       1.0  0.93777  0.05517  0.32149  1.0000
  C   C53       1.0  0.92676  0.02963  0.36258  1.0000
  C   C54       1.0  0.94079  0.01545  0.36540  1.0000
  C   C55       1.0  0.96614  0.93910  0.33683  1.0000
  C   C56       1.0  0.94082  0.92421  0.37904  1.0000
  C   C57       1.0  0.92659  0.89597  0.37788  1.0000
  C   C58       1.0  0.93734  0.88145  0.33565  1.0000
  C   C59       1.0  0.96266  0.89614  0.29391  1.0000
  C   C60       1.0  0.97665  0.92437  0.29394  1.0000
  H   H22       1.0  0.97279  0.08396  0.25263  1.0000
  H   H23       1.0  0.99535  0.05927  0.25120  1.0000
  H   H24       1.0  0.90811  0.02077  0.39087  1.0000
  H   H25       1.0  0.93208  0.99757  0.39887  1.0000
  H   H26       1.0  0.93256  0.93380  0.41269  1.0000
  H   H27       1.0  0.90850  0.88607  0.41006  1.0000
  H   H28       1.0  0.99452  0.93407  0.26050  1.0000
  H   H29       1.0  0.97089  0.88637  0.26115  1.0000
  H   H30       1.0  0.05810  0.99681  0.27323  1.0000
  H   H31       1.0  0.10529  0.01974  0.27706  1.0000
  H   H32       1.0  0.10542  0.08354  0.41677  1.0000
  H   H33       1.0  0.05813  0.05911  0.42219  1.0000
  H   H34       1.0  0.01947  0.04515  0.33740  1.0000
  H   H35       1.0  0.94696  0.97254  0.31678  1.0000
  H   H36       1.0  0.01872  0.97225  0.35801  1.0000
  C   C61       1.0  0.44221  0.24477  0.34391  1.0000
  C   C62       1.0  0.41399  0.22978  0.33829  1.0000
  C   C63       1.0  0.39994  0.20131  0.33651  1.0000
  C   C64       1.0  0.41536  0.18826  0.33958  1.0000
  C   C65       1.0  0.44366  0.20273  0.34663  1.0000
  C   C66       1.0  0.45668  0.23102  0.34776  1.0000
  C   C67       1.0  0.37111  0.18632  0.33385  1.0000
  C   C68       1.0  0.35620  0.19549  0.28479  1.0000
  C   C69       1.0  0.32797  0.18135  0.28494  1.0000
  C   C70       1.0  0.31312  0.15703  0.33289  1.0000
  C   C71       1.0  0.32805  0.14767  0.38089  1.0000
  C   C72       1.0  0.35628  0.16204  0.38193  1.0000
  C   C73       1.0  0.45651  0.27320  0.34456  1.0000
  C   C74       1.0  0.45871  0.28764  0.26561  1.0000
  C   C75       1.0  0.47730  0.31530  0.26027  1.0000
  C   C76       1.0  0.49355  0.32917  0.33445  1.0000
  C   C77       1.0  0.49062  0.31491  0.41446  1.0000
  C   C78       1.0  0.47251  0.28718  0.41909  1.0000
  C   C79       1.0  0.45930  0.18982  0.35228  1.0000
  C   C80       1.0  0.48029  0.19860  0.41559  1.0000
  C   C81       1.0  0.49818  0.18874  0.41462  1.0000
  C   C82       1.0  0.49566  0.16934  0.35123  1.0000
  C   C83       1.0  0.47392  0.15971  0.29035  1.0000
  C   C84       1.0  0.45600  0.16969  0.29097  1.0000
  H   H37       1.0  0.47968  0.32501  0.20073  1.0000
  H   H38       1.0  0.44831  0.27781  0.20938  1.0000
  H   H39       1.0  0.50290  0.32421  0.46795  1.0000
  H   H40       1.0  0.47198  0.27705  0.47601  1.0000
  H   H41       1.0  0.48341  0.21313  0.46127  1.0000
  H   H42       1.0  0.51396  0.19702  0.45833  1.0000
  H   H43       1.0  0.44141  0.16316  0.24299  1.0000
  H   H44       1.0  0.47128  0.14570  0.24327  1.0000
  H   H45       1.0  0.36588  0.15467  0.42014  1.0000
  H   H46       1.0  0.31851  0.13002  0.41556  1.0000
  H   H47       1.0  0.31841  0.18947  0.25049  1.0000
  H   H48       1.0  0.36576  0.21267  0.24766  1.0000
  H   H49       1.0  0.40364  0.23995  0.33849  1.0000
  H   H50       1.0  0.47722  0.24194  0.34963  1.0000
  H   H51       1.0  0.40586  0.16777  0.33753  1.0000
  C   C85       1.0  0.74955  0.19827  0.34413  1.0000
  C   C86       1.0  0.76456  0.18511  0.33665  1.0000
  C   C87       1.0  0.79303  0.19958  0.33438  1.0000
  C   C88       1.0  0.80605  0.22802  0.33878  1.0000
  C   C89       1.0  0.79156  0.24180  0.34742  1.0000
  C   C90       1.0  0.76327  0.22647  0.34911  1.0000
  C   C91       1.0  0.80804  0.18579  0.32941  1.0000
  C   C92       1.0  0.79887  0.16207  0.27831  1.0000
  C   C93       1.0  0.81308  0.14807  0.27585  1.0000
  C   C94       1.0  0.83746  0.15726  0.32315  1.0000
  C   C95       1.0  0.84681  0.18118  0.37333  1.0000
  C   C96       1.0  0.83238  0.19497  0.37692  1.0000
  C   C97       1.0  0.72110  0.18410  0.34462  1.0000
  C   C98       1.0  0.70671  0.17179  0.26565  1.0000
  C   C99       1.0  0.67905  0.16268  0.26011  1.0000
  C   C100      1.0  0.66511  0.16501  0.33417  1.0000
  C   C101      1.0  0.67932  0.17638  0.41421  1.0000
  C   C102      1.0  0.70705  0.18606  0.41907  1.0000
  C   C103      1.0  0.80443  0.27035  0.35329  1.0000
  C   C104      1.0  0.79566  0.28252  0.41675  1.0000
  C   C105      1.0  0.80542  0.31027  0.41573  1.0000
  C   C106      1.0  0.82467  0.32716  0.35199  1.0000
  C   C107      1.0  0.83434  0.31510  0.29107  1.0000
  C   C108      1.0  0.82446  0.28722  0.29174  1.0000
  H   H52       1.0  0.66937  0.15529  0.20057  1.0000
  H   H53       1.0  0.71659  0.17123  0.20950  1.0000
  H   H54       1.0  0.66997  0.17935  0.46759  1.0000
  H   H55       1.0  0.71714  0.19571  0.47598  1.0000
  H   H56       1.0  0.78119  0.27110  0.46257  1.0000
  H   H57       1.0  0.79707  0.31770  0.45939  1.0000
  H   H58       1.0  0.83101  0.27920  0.24367  1.0000
  H   H59       1.0  0.84828  0.32647  0.24384  1.0000
  H   H60       1.0  0.83976  0.21168  0.41638  1.0000
  H   H61       1.0  0.86450  0.18909  0.40770  1.0000
  H   H62       1.0  0.80497  0.13063  0.23994  1.0000
  H   H63       1.0  0.78164  0.15467  0.24150  1.0000
  H   H64       1.0  0.75443  0.16459  0.33581  1.0000
  H   H65       1.0  0.75232  0.23605  0.35183  1.0000
  H   H66       1.0  0.82653  0.23903  0.33624  1.0000
  C   C109      1.0  0.79594  0.55245  0.34067  1.0000
  C   C110      1.0  0.80915  0.58063  0.33349  1.0000
  C   C111      1.0  0.79466  0.59457  0.33512  1.0000
  C   C112      1.0  0.76630  0.57937  0.34211  1.0000
  C   C113      1.0  0.75250  0.55106  0.34893  1.0000
  C   C114      1.0  0.76776  0.53802  0.34772  1.0000
  C   C115      1.0  0.80844  0.62326  0.33222  1.0000
  C   C116      1.0  0.82967  0.63781  0.27121  1.0000
  C   C117      1.0  0.84364  0.66604  0.26997  1.0000
  C   C118      1.0  0.83713  0.68088  0.33028  1.0000
  C   C119      1.0  0.81591  0.66633  0.39126  1.0000
  C   C120      1.0  0.80179  0.63810  0.39200  1.0000
  C   C121      1.0  0.81005  0.53813  0.34039  1.0000
  C   C122      1.0  0.82147  0.53526  0.26051  1.0000
  C   C123      1.0  0.83052  0.51665  0.25531  1.0000
  C   C124      1.0  0.82892  0.50103  0.33043  1.0000
  C   C125      1.0  0.81843  0.50465  0.41127  1.0000
  C   C126      1.0  0.80883  0.52277  0.41586  1.0000
  C   C127      1.0  0.72397  0.53544  0.35563  1.0000
  C   C128      1.0  0.71191  0.51426  0.41831  1.0000
  C   C129      1.0  0.68417  0.49627  0.41742  1.0000
  C   C130      1.0  0.66719  0.49882  0.35448  1.0000
  C   C131      1.0  0.67917  0.52071  0.29418  1.0000
  C   C132      1.0  0.70703  0.53876  0.29488  1.0000
  H   H67       1.0  0.83733  0.51385  0.19534  1.0000
  H   H68       1.0  0.82156  0.54528  0.20386  1.0000
  H   H69       1.0  0.81594  0.49278  0.46556  1.0000
  H   H70       1.0  0.79978  0.52375  0.47356  1.0000
  H   H71       1.0  0.72341  0.51110  0.46347  1.0000
  H   H72       1.0  0.67677  0.48039  0.46065  1.0000
  H   H73       1.0  0.71501  0.55345  0.24717  1.0000
  H   H74       1.0  0.66773  0.52338  0.24748  1.0000
  H   H75       1.0  0.78690  0.62847  0.43833  1.0000
  H   H76       1.0  0.81029  0.67619  0.43543  1.0000
  H   H77       1.0  0.85908  0.67569  0.22555  1.0000
  H   H78       1.0  0.83504  0.62794  0.22624  1.0000
  H   H79       1.0  0.82967  0.59111  0.33047  1.0000
  H   H80       1.0  0.75815  0.51748  0.35003  1.0000
  H   H81       1.0  0.75546  0.58905  0.34282  1.0000
  C   C133      1.0  0.26942  0.12860  0.40968  1.0000
  C   C134      1.0  0.24122  0.11445  0.40969  1.0000
  C   C135      1.0  0.18341  0.10145  0.41020  1.0000
  C   C136      1.0  0.15519  0.08672  0.41383  1.0000
  H   H82       1.0  0.19354  0.11414  0.46194  1.0000
  H   H83       1.0  0.14611  0.08877  0.46959  1.0000
  H   H84       1.0  0.27900  0.12883  0.46751  1.0000
  H   H85       1.0  0.23160  0.10432  0.46656  1.0000
  C   C137      1.0  0.86592  0.14141  0.39633  1.0000
  C   C138      1.0  0.87998  0.12729  0.39389  1.0000
  C   C139      1.0  0.89205  0.08194  0.38924  1.0000
  C   C140      1.0  0.90624  0.06790  0.39099  1.0000
  H   H86       1.0  0.87942  0.07930  0.44126  1.0000
  H   H87       1.0  0.90390  0.05636  0.44591  1.0000
  H   H88       1.0  0.86569  0.15030  0.45526  1.0000
  H   H89       1.0  0.89002  0.12725  0.45030  1.0000
  C   C141      1.0  0.86040  0.72436  0.41033  1.0000
  C   C142      1.0  0.87471  0.75256  0.40984  1.0000
  C   C143      1.0  0.92129  0.80993  0.36210  1.0000
  C   C144      1.0  0.93541  0.83817  0.36298  1.0000
  H   H90       1.0  0.93085  0.79994  0.38296  1.0000
  H   H91       1.0  0.95476  0.84794  0.38575  1.0000
  H   H92       1.0  0.85690  0.71469  0.47044  1.0000
  H   H93       1.0  0.88069  0.76250  0.46961  1.0000
  C   C145      1.0  0.51580  0.16171  0.34555  1.0000
  C   C146      1.0  0.56169  0.15462  0.33500  1.0000
  C   C147      1.0  0.55081  0.15545  0.41955  1.0000
  C   C148      1.0  0.52791  0.15852  0.42339  1.0000
  H   H94       1.0  0.52072  0.15956  0.48493  1.0000
  C   C149      1.0  0.58657  0.15485  0.32705  1.0000
  C   C150      1.0  0.63844  0.15983  0.32553  1.0000
  C   C151      1.0  0.61733  0.13933  0.37542  1.0000
  C   C152      1.0  0.59163  0.13660  0.37478  1.0000
  H   H95       1.0  0.62065  0.12656  0.41383  1.0000
  H   H96       1.0  0.57683  0.12166  0.41216  1.0000
  N   N4        1.0  0.56387  0.15515  0.49952  1.0000
  O   O7        1.0  0.54864  0.13580  0.54893  1.0000
  O   O8        1.0  0.57234  0.17658  0.54294  1.0000
  C   C153      1.0  0.83214  0.35490  0.34603  1.0000
  C   C154      1.0  0.83907  0.40781  0.33459  1.0000
  C   C155      1.0  0.83819  0.39618  0.41934  1.0000
  C   C156      1.0  0.83519  0.37024  0.42361  1.0000
  H   H97       1.0  0.83414  0.36209  0.48530  1.0000
  C   C157      1.0  0.83886  0.43246  0.32605  1.0000
  C   C158      1.0  0.83406  0.47948  0.32270  1.0000
  C   C159      1.0  0.85440  0.47883  0.37349  1.0000
  C   C160      1.0  0.85703  0.45581  0.37381  1.0000
  H   H98       1.0  0.86713  0.49495  0.41187  1.0000
  H   H99       1.0  0.87191  0.45597  0.41166  1.0000
  N   N5        1.0  0.83838  0.40959  0.49906  1.0000
  O   O9        1.0  0.85770  0.41380  0.54876  1.0000
  O   O10       1.0  0.81693  0.39663  0.54232  1.0000
  C   C161      1.0  0.63947  0.47856  0.34849  1.0000
  C   C162      1.0  0.58658  0.43258  0.33703  1.0000
  C   C163      1.0  0.59822  0.44329  0.42179  1.0000
  C   C164      1.0  0.62416  0.46624  0.42609  1.0000
  H   H100      1.0  0.63235  0.47329  0.48778  1.0000
  C   C165      1.0  0.56194  0.40770  0.32858  1.0000
  C   C166      1.0  0.51503  0.35585  0.32607  1.0000
  C   C167      1.0  0.51560  0.37689  0.37625  1.0000
  C   C168      1.0  0.53859  0.40258  0.37615  1.0000
  H   H101      1.0  0.49949  0.37351  0.41468  1.0000
  H   H102      1.0  0.53842  0.41733  0.41379  1.0000
  N   N6        1.0  0.58481  0.43005  0.50147  1.0000
  O   O11       1.0  0.58059  0.44514  0.55124  1.0000
  O   O12       1.0  0.59777  0.42155  0.54467  1.0000
