data_image0
_chemical_formula_structural       C2HC2H3N2C3OHOHCHC3OHOHCHC4NC4NH4N2C3O2H2CHC3O2H2CHC2HC2H3N2C3OHOHCHC3OHOHCHC4NC4NH4N2C3O2H2CHC3O2H2CHC2HC2H3N2C3OHOHCHC3OHOHCHC4NC4NH4N2C3O2H2CHC3O2H2CHC2HC2H3N2C3OHOHCHC3OHOHCHC4NC4NH4N2C3O2H2CHC3O2H2CH
_chemical_formula_sum              "C112 H80 N24 O32"
_cell_length_a       31.56
_cell_length_b       31.56
_cell_length_c       14.9958
_cell_angle_alpha    90
_cell_angle_beta     90
_cell_angle_gamma    90

_space_group_name_H-M_alt    "P 1"
_space_group_IT_number       1

loop_
  _space_group_symop_operation_xyz
  'x, y, z'

loop_
  _atom_site_type_symbol
  _atom_site_label
  _atom_site_symmetry_multiplicity
  _atom_site_fract_x
  _atom_site_fract_y
  _atom_site_fract_z
  _atom_site_occupancy
  C   C1        1.0  0.49371  0.44012  0.33714  1.0000
  C   C2        1.0  0.46265  0.40785  0.33866  1.0000
  H   H1        1.0  0.02416  0.43006  0.33254  1.0000
  C   C3        1.0  0.03753  0.09322  0.32734  1.0000
  C   C4        1.0  0.00643  0.06097  0.32822  1.0000
  H   H2        1.0  0.47596  0.07105  0.32468  1.0000
  H   H3        1.0  0.10471  0.14279  0.31481  1.0000
  H   H4        1.0  0.39575  0.35783  0.35100  1.0000
  N   N1        1.0  0.02761  0.13499  0.32804  1.0000
  N   N2        1.0  0.47256  0.36612  0.33449  1.0000
  C   C5        1.0  0.99718  0.20507  0.32725  1.0000
  C   C6        1.0  0.96273  0.23089  0.30024  1.0000
  C   C7        1.0  0.46587  0.27557  0.30128  1.0000
  O   O1        1.0  0.43210  0.29742  0.26848  1.0000
  H   H5        1.0  0.43864  0.30363  0.20568  1.0000
  O   O2        1.0  0.92570  0.21339  0.27093  1.0000
  H   H6        1.0  0.92900  0.20916  0.20630  1.0000
  C   C8        1.0  0.99337  0.16037  0.32294  1.0000
  H   H7        1.0  0.96494  0.14659  0.30801  1.0000
  C   C9        1.0  0.29587  0.00253  0.33955  1.0000
  C   C10       1.0  0.27081  0.03559  0.30323  1.0000
  C   C11       1.0  0.22597  0.53399  0.30588  1.0000
  O   O3        1.0  0.20414  0.56503  0.26224  1.0000
  H   H8        1.0  0.21104  0.59214  0.29122  1.0000
  O   O4        1.0  0.28929  0.06973  0.26298  1.0000
  H   H9        1.0  0.29264  0.06218  0.19972  1.0000
  C   C12       1.0  0.34066  0.00563  0.33563  1.0000
  H   H10       1.0  0.35464  0.03323  0.31552  1.0000
  C   C13       1.0  0.48390  0.48429  0.33687  1.0000
  C   C14       1.0  0.41908  0.41850  0.34170  1.0000
  C   C15       1.0  0.40766  0.46192  0.34069  1.0000
  C   C16       1.0  0.43955  0.49342  0.33769  1.0000
  N   N3        1.0  0.38878  0.38755  0.34468  1.0000
  C   C17       1.0  0.01617  0.01690  0.33513  1.0000
  C   C18       1.0  0.06047  0.00783  0.34075  1.0000
  C   C19       1.0  0.09244  0.03921  0.33661  1.0000
  C   C20       1.0  0.08109  0.08252  0.32978  1.0000
  N   N4        1.0  0.11145  0.11339  0.32641  1.0000
  H   H11       1.0  0.14120  0.10723  0.33399  1.0000
  H   H12       1.0  0.35885  0.39391  0.34212  1.0000
  H   H13       1.0  0.42909  0.02379  0.33949  1.0000
  H   H14       1.0  0.07086  0.47758  0.34726  1.0000
  N   N5        1.0  0.13442  0.02985  0.33692  1.0000
  N   N6        1.0  0.36570  0.47122  0.34328  1.0000
  C   C21       1.0  0.50337  0.29633  0.33078  1.0000
  C   C22       1.0  0.53787  0.27053  0.35757  1.0000
  C   C23       1.0  0.03465  0.22586  0.35688  1.0000
  O   O5        1.0  0.57485  0.28805  0.38715  1.0000
  O   O6        1.0  0.06828  0.20413  0.39056  1.0000
  H   H15       1.0  0.57148  0.29224  0.45177  1.0000
  H   H16       1.0  0.06160  0.19832  0.45348  1.0000
  C   C24       1.0  0.50706  0.34101  0.33591  1.0000
  H   H17       1.0  0.03553  0.35478  0.35057  1.0000
  C   C25       1.0  0.20443  0.49859  0.34320  1.0000
  C   C26       1.0  0.22951  0.46513  0.37788  1.0000
  C   C27       1.0  0.27437  0.96711  0.37677  1.0000
  O   O7        1.0  0.21109  0.43154  0.42014  1.0000
  O   O8        1.0  0.29629  0.93652  0.42164  1.0000
  H   H18       1.0  0.20621  0.40992  0.37402  1.0000
  H   H19       1.0  0.29009  0.90923  0.39277  1.0000
  C   C28       1.0  0.15962  0.49575  0.34795  1.0000
  H   H20       1.0  0.14554  0.96822  0.36818  1.0000
  C   C29       1.0  0.49371  0.94013  0.33714  1.0000
  C   C30       1.0  0.46265  0.90785  0.33866  1.0000
  H   H21       1.0  0.02416  0.93006  0.33254  1.0000
  C   C31       1.0  0.03753  0.59322  0.32734  1.0000
  C   C32       1.0  0.00643  0.56097  0.32822  1.0000
  H   H22       1.0  0.47596  0.57105  0.32468  1.0000
  H   H23       1.0  0.10471  0.64279  0.31481  1.0000
  H   H24       1.0  0.39575  0.85783  0.35100  1.0000
  N   N7        1.0  0.02761  0.63499  0.32804  1.0000
  N   N8        1.0  0.47256  0.86613  0.33449  1.0000
  C   C33       1.0  0.99718  0.70507  0.32725  1.0000
  C   C34       1.0  0.96273  0.73089  0.30024  1.0000
  C   C35       1.0  0.46587  0.77557  0.30128  1.0000
  O   O9        1.0  0.43210  0.79742  0.26848  1.0000
  H   H25       1.0  0.43864  0.80363  0.20568  1.0000
  O   O10       1.0  0.92570  0.71339  0.27093  1.0000
  H   H26       1.0  0.92900  0.70916  0.20630  1.0000
  C   C36       1.0  0.99337  0.66036  0.32294  1.0000
  H   H27       1.0  0.96494  0.64659  0.30801  1.0000
  C   C37       1.0  0.29587  0.50253  0.33955  1.0000
  C   C38       1.0  0.27081  0.53559  0.30323  1.0000
  C   C39       1.0  0.22597  0.03399  0.30588  1.0000
  O   O11       1.0  0.20414  0.06503  0.26224  1.0000
  H   H28       1.0  0.21104  0.09214  0.29122  1.0000
  O   O12       1.0  0.28929  0.56973  0.26298  1.0000
  H   H29       1.0  0.29264  0.56218  0.19972  1.0000
  C   C40       1.0  0.34066  0.50563  0.33563  1.0000
  H   H30       1.0  0.35464  0.53323  0.31552  1.0000
  C   C41       1.0  0.48390  0.98429  0.33687  1.0000
  C   C42       1.0  0.41908  0.91850  0.34170  1.0000
  C   C43       1.0  0.40766  0.96192  0.34069  1.0000
  C   C44       1.0  0.43955  0.99342  0.33769  1.0000
  N   N9        1.0  0.38878  0.88755  0.34468  1.0000
  C   C45       1.0  0.01617  0.51690  0.33513  1.0000
  C   C46       1.0  0.06047  0.50783  0.34075  1.0000
  C   C47       1.0  0.09244  0.53921  0.33661  1.0000
  C   C48       1.0  0.08109  0.58252  0.32978  1.0000
  N   N10       1.0  0.11145  0.61339  0.32641  1.0000
  H   H31       1.0  0.14120  0.60723  0.33399  1.0000
  H   H32       1.0  0.35885  0.89391  0.34212  1.0000
  H   H33       1.0  0.42909  0.52379  0.33949  1.0000
  H   H34       1.0  0.07086  0.97758  0.34726  1.0000
  N   N11       1.0  0.13442  0.52985  0.33692  1.0000
  N   N12       1.0  0.36570  0.97122  0.34328  1.0000
  C   C49       1.0  0.50337  0.79633  0.33078  1.0000
  C   C50       1.0  0.53787  0.77053  0.35757  1.0000
  C   C51       1.0  0.03465  0.72586  0.35688  1.0000
  O   O13       1.0  0.57485  0.78805  0.38715  1.0000
  O   O14       1.0  0.06828  0.70413  0.39056  1.0000
  H   H35       1.0  0.57148  0.79225  0.45177  1.0000
  H   H36       1.0  0.06160  0.69832  0.45348  1.0000
  C   C52       1.0  0.50706  0.84101  0.33591  1.0000
  H   H37       1.0  0.03553  0.85478  0.35057  1.0000
  C   C53       1.0  0.20443  0.99859  0.34320  1.0000
  C   C54       1.0  0.22951  0.96513  0.37788  1.0000
  C   C55       1.0  0.27437  0.46711  0.37677  1.0000
  O   O15       1.0  0.21109  0.93154  0.42014  1.0000
  O   O16       1.0  0.29629  0.43652  0.42164  1.0000
  H   H38       1.0  0.20621  0.90992  0.37402  1.0000
  H   H39       1.0  0.29009  0.40923  0.39277  1.0000
  C   C56       1.0  0.15962  0.99575  0.34795  1.0000
  H   H40       1.0  0.14554  0.46822  0.36818  1.0000
  C   C57       1.0  0.99371  0.44012  0.33714  1.0000
  C   C58       1.0  0.96265  0.40785  0.33866  1.0000
  H   H41       1.0  0.52416  0.43006  0.33254  1.0000
  C   C59       1.0  0.53753  0.09322  0.32734  1.0000
  C   C60       1.0  0.50643  0.06097  0.32822  1.0000
  H   H42       1.0  0.97596  0.07105  0.32468  1.0000
  H   H43       1.0  0.60471  0.14279  0.31481  1.0000
  H   H44       1.0  0.89574  0.35783  0.35100  1.0000
  N   N13       1.0  0.52761  0.13499  0.32804  1.0000
  N   N14       1.0  0.97256  0.36612  0.33449  1.0000
  C   C61       1.0  0.49718  0.20507  0.32725  1.0000
  C   C62       1.0  0.46272  0.23089  0.30024  1.0000
  C   C63       1.0  0.96587  0.27557  0.30128  1.0000
  O   O17       1.0  0.93210  0.29742  0.26848  1.0000
  H   H45       1.0  0.93864  0.30363  0.20568  1.0000
  O   O18       1.0  0.42570  0.21339  0.27093  1.0000
  H   H46       1.0  0.42900  0.20916  0.20630  1.0000
  C   C64       1.0  0.49337  0.16037  0.32294  1.0000
  H   H47       1.0  0.46494  0.14659  0.30801  1.0000
  C   C65       1.0  0.79587  0.00253  0.33955  1.0000
  C   C66       1.0  0.77081  0.03559  0.30323  1.0000
  C   C67       1.0  0.72597  0.53399  0.30588  1.0000
  O   O19       1.0  0.70414  0.56503  0.26224  1.0000
  H   H48       1.0  0.71104  0.59214  0.29122  1.0000
  O   O20       1.0  0.78929  0.06973  0.26298  1.0000
  H   H49       1.0  0.79264  0.06218  0.19972  1.0000
  C   C68       1.0  0.84066  0.00563  0.33563  1.0000
  H   H50       1.0  0.85464  0.03323  0.31552  1.0000
  C   C69       1.0  0.98390  0.48429  0.33687  1.0000
  C   C70       1.0  0.91908  0.41850  0.34170  1.0000
  C   C71       1.0  0.90766  0.46192  0.34069  1.0000
  C   C72       1.0  0.93955  0.49342  0.33769  1.0000
  N   N15       1.0  0.88878  0.38755  0.34468  1.0000
  C   C73       1.0  0.51617  0.01690  0.33513  1.0000
  C   C74       1.0  0.56047  0.00783  0.34075  1.0000
  C   C75       1.0  0.59245  0.03921  0.33661  1.0000
  C   C76       1.0  0.58109  0.08252  0.32978  1.0000
  N   N16       1.0  0.61145  0.11339  0.32641  1.0000
  H   H51       1.0  0.64120  0.10723  0.33399  1.0000
  H   H52       1.0  0.85885  0.39391  0.34212  1.0000
  H   H53       1.0  0.92909  0.02379  0.33949  1.0000
  H   H54       1.0  0.57086  0.47758  0.34726  1.0000
  N   N17       1.0  0.63442  0.02985  0.33692  1.0000
  N   N18       1.0  0.86570  0.47122  0.34328  1.0000
  C   C77       1.0  0.00337  0.29633  0.33078  1.0000
  C   C78       1.0  0.03787  0.27053  0.35757  1.0000
  C   C79       1.0  0.53465  0.22586  0.35688  1.0000
  O   O21       1.0  0.07485  0.28805  0.38715  1.0000
  O   O22       1.0  0.56828  0.20413  0.39056  1.0000
  H   H55       1.0  0.07148  0.29224  0.45177  1.0000
  H   H56       1.0  0.56160  0.19832  0.45348  1.0000
  C   C80       1.0  0.00706  0.34101  0.33591  1.0000
  H   H57       1.0  0.53553  0.35478  0.35057  1.0000
  C   C81       1.0  0.70443  0.49859  0.34320  1.0000
  C   C82       1.0  0.72952  0.46513  0.37788  1.0000
  C   C83       1.0  0.77437  0.96711  0.37677  1.0000
  O   O23       1.0  0.71109  0.43154  0.42014  1.0000
  O   O24       1.0  0.79629  0.93652  0.42164  1.0000
  H   H58       1.0  0.70621  0.40992  0.37402  1.0000
  H   H59       1.0  0.79009  0.90923  0.39277  1.0000
  C   C84       1.0  0.65962  0.49575  0.34795  1.0000
  H   H60       1.0  0.64555  0.96822  0.36818  1.0000
  C   C85       1.0  0.99371  0.94013  0.33714  1.0000
  C   C86       1.0  0.96265  0.90785  0.33866  1.0000
  H   H61       1.0  0.52416  0.93006  0.33254  1.0000
  C   C87       1.0  0.53753  0.59322  0.32734  1.0000
  C   C88       1.0  0.50643  0.56097  0.32822  1.0000
  H   H62       1.0  0.97596  0.57105  0.32468  1.0000
  H   H63       1.0  0.60471  0.64279  0.31481  1.0000
  H   H64       1.0  0.89574  0.85783  0.35100  1.0000
  N   N19       1.0  0.52761  0.63499  0.32804  1.0000
  N   N20       1.0  0.97256  0.86613  0.33449  1.0000
  C   C89       1.0  0.49718  0.70507  0.32725  1.0000
  C   C90       1.0  0.46272  0.73089  0.30024  1.0000
  C   C91       1.0  0.96587  0.77557  0.30128  1.0000
  O   O25       1.0  0.93210  0.79742  0.26848  1.0000
  H   H65       1.0  0.93864  0.80363  0.20568  1.0000
  O   O26       1.0  0.42570  0.71339  0.27093  1.0000
  H   H66       1.0  0.42900  0.70916  0.20630  1.0000
  C   C92       1.0  0.49337  0.66036  0.32294  1.0000
  H   H67       1.0  0.46494  0.64659  0.30801  1.0000
  C   C93       1.0  0.79587  0.50253  0.33955  1.0000
  C   C94       1.0  0.77081  0.53559  0.30323  1.0000
  C   C95       1.0  0.72597  0.03399  0.30588  1.0000
  O   O27       1.0  0.70414  0.06503  0.26224  1.0000
  H   H68       1.0  0.71104  0.09214  0.29122  1.0000
  O   O28       1.0  0.78929  0.56973  0.26298  1.0000
  H   H69       1.0  0.79264  0.56218  0.19972  1.0000
  C   C96       1.0  0.84066  0.50563  0.33563  1.0000
  H   H70       1.0  0.85464  0.53323  0.31552  1.0000
  C   C97       1.0  0.98390  0.98429  0.33687  1.0000
  C   C98       1.0  0.91908  0.91850  0.34170  1.0000
  C   C99       1.0  0.90766  0.96192  0.34069  1.0000
  C   C100      1.0  0.93955  0.99342  0.33769  1.0000
  N   N21       1.0  0.88878  0.88755  0.34468  1.0000
  C   C101      1.0  0.51617  0.51690  0.33513  1.0000
  C   C102      1.0  0.56047  0.50783  0.34075  1.0000
  C   C103      1.0  0.59245  0.53921  0.33661  1.0000
  C   C104      1.0  0.58109  0.58252  0.32978  1.0000
  N   N22       1.0  0.61145  0.61339  0.32641  1.0000
  H   H71       1.0  0.64120  0.60723  0.33399  1.0000
  H   H72       1.0  0.85885  0.89391  0.34212  1.0000
  H   H73       1.0  0.92909  0.52379  0.33949  1.0000
  H   H74       1.0  0.57086  0.97758  0.34726  1.0000
  N   N23       1.0  0.63442  0.52985  0.33692  1.0000
  N   N24       1.0  0.86570  0.97122  0.34328  1.0000
  C   C105      1.0  0.00337  0.79633  0.33078  1.0000
  C   C106      1.0  0.03787  0.77053  0.35757  1.0000
  C   C107      1.0  0.53465  0.72586  0.35688  1.0000
  O   O29       1.0  0.07485  0.78805  0.38715  1.0000
  O   O30       1.0  0.56828  0.70413  0.39056  1.0000
  H   H75       1.0  0.07148  0.79225  0.45177  1.0000
  H   H76       1.0  0.56160  0.69832  0.45348  1.0000
  C   C108      1.0  0.00706  0.84101  0.33591  1.0000
  H   H77       1.0  0.53553  0.85478  0.35057  1.0000
  C   C109      1.0  0.70443  0.99859  0.34320  1.0000
  C   C110      1.0  0.72952  0.96513  0.37788  1.0000
  C   C111      1.0  0.77437  0.46711  0.37677  1.0000
  O   O31       1.0  0.71109  0.93154  0.42014  1.0000
  O   O32       1.0  0.79629  0.43652  0.42164  1.0000
  H   H78       1.0  0.70621  0.90992  0.37402  1.0000
  H   H79       1.0  0.79009  0.40923  0.39277  1.0000
  C   C112      1.0  0.65962  0.99575  0.34795  1.0000
  H   H80       1.0  0.64555  0.46822  0.36818  1.0000
