data_image0
_chemical_formula_structural       C3H2NC3H2NH2CHCHCHCHC6HCNHCH3C4HCNHCH3CNH2C6H3C6H3CNC4H2CH3CNC4H2CH3C4HCH3C4HCNHCH3C4HCNHCH3CNH2C6H3C6H3CNC4H2CH3CNC4H2CH3C4HCH3C4HCNHCH3C4HCNHCH3C4HCNHCH2C6H3C6H3CNC4H2CH3CNC4H2CH3CNC4H2CH3C4HCNHCH3C4HCNHCH3C4HCNHCH2C6H3C6H3CNC4H2CH3CNC4H2CH3CNC4H2CH3
_chemical_formula_sum              "C192 H144 N24"
_cell_length_a       44.7242
_cell_length_b       44.7242
_cell_length_c       14.9218
_cell_angle_alpha    90
_cell_angle_beta     90
_cell_angle_gamma    120

_space_group_name_H-M_alt    "P 1"
_space_group_IT_number       1

loop_
  _space_group_symop_operation_xyz
  'x, y, z'

loop_
  _atom_site_type_symbol
  _atom_site_label
  _atom_site_symmetry_multiplicity
  _atom_site_fract_x
  _atom_site_fract_y
  _atom_site_fract_z
  _atom_site_occupancy
  C   C1        1.0  0.02249  0.26320  0.33325  1.0000
  C   C2        1.0  0.04121  0.29162  0.27279  1.0000
  C   C3        1.0  0.02474  0.30411  0.20723  1.0000
  H   H1        1.0  0.04336  0.32606  0.16739  1.0000
  H   H2        1.0  0.00880  0.31242  0.24261  1.0000
  N   N1        1.0  0.04227  0.25552  0.38712  1.0000
  C   C4        1.0  0.02249  0.76321  0.33325  1.0000
  C   C5        1.0  0.04121  0.79162  0.27279  1.0000
  C   C6        1.0  0.02474  0.80411  0.20723  1.0000
  H   H3        1.0  0.04336  0.82606  0.16739  1.0000
  H   H4        1.0  0.00880  0.81242  0.24261  1.0000
  N   N2        1.0  0.04227  0.75552  0.38712  1.0000
  H   H5        1.0  0.00887  0.28349  0.16028  1.0000
  H   H6        1.0  0.00887  0.78350  0.16028  1.0000
  C   C7        1.0  0.07791  0.30932  0.27446  1.0000
  H   H7        1.0  0.09148  0.32929  0.23082  1.0000
  C   C8        1.0  0.07713  0.27164  0.38968  1.0000
  H   H8        1.0  0.08861  0.26337  0.43481  1.0000
  C   C9        1.0  0.07791  0.80932  0.27446  1.0000
  H   H9        1.0  0.09148  0.82930  0.23082  1.0000
  C   C10       1.0  0.07712  0.77164  0.38967  1.0000
  H   H10       1.0  0.08861  0.76337  0.43481  1.0000
  C   C11       1.0  0.09672  0.29989  0.33270  1.0000
  C   C12       1.0  0.09672  0.79989  0.33269  1.0000
  C   C13       1.0  0.20665  0.29815  0.33275  1.0000
  C   C14       1.0  0.24333  0.26061  0.33330  1.0000
  C   C15       1.0  0.21491  0.25091  0.27287  1.0000
  C   C16       1.0  0.19721  0.26991  0.27454  1.0000
  H   H11       1.0  0.17723  0.26350  0.23091  1.0000
  C   C17       1.0  0.27370  0.19909  0.28415  1.0000
  N   N3        1.0  0.25752  0.21776  0.28691  1.0000
  H   H12       1.0  0.26596  0.17982  0.23769  1.0000
  C   C18       1.0  0.20241  0.22194  0.20733  1.0000
  H   H13       1.0  0.22302  0.22668  0.16036  1.0000
  H   H14       1.0  0.18045  0.21860  0.16752  1.0000
  H   H15       1.0  0.19411  0.19769  0.24273  1.0000
  C   C19       1.0  0.20838  0.40982  0.33269  1.0000
  C   C20       1.0  0.24594  0.48406  0.33326  1.0000
  C   C21       1.0  0.25568  0.46533  0.27296  1.0000
  C   C22       1.0  0.23668  0.42863  0.27462  1.0000
  H   H16       1.0  0.24312  0.41506  0.23108  1.0000
  C   C23       1.0  0.30740  0.07595  0.28393  1.0000
  N   N4        1.0  0.28873  0.04109  0.28671  1.0000
  H   H17       1.0  0.32663  0.08748  0.23738  1.0000
  C   C24       1.0  0.28473  0.48180  0.20762  1.0000
  H   H18       1.0  0.28002  0.99764  0.16048  1.0000
  H   H19       1.0  0.28812  0.46318  0.16798  1.0000
  H   H20       1.0  0.30893  0.49777  0.24317  1.0000
  C   C25       1.0  0.43059  0.23284  0.28413  1.0000
  N   N5        1.0  0.46545  0.24902  0.28688  1.0000
  H   H21       1.0  0.41907  0.24059  0.23769  1.0000
  H   H22       1.0  0.50887  0.28349  0.16028  1.0000
  C   C26       1.0  0.13368  0.31793  0.33368  1.0000
  C   C27       1.0  0.15292  0.35447  0.33373  1.0000
  C   C28       1.0  0.18947  0.37286  0.33367  1.0000
  C   C29       1.0  0.20676  0.35362  0.33381  1.0000
  C   C30       1.0  0.18861  0.31707  0.33373  1.0000
  C   C31       1.0  0.15207  0.29978  0.33381  1.0000
  H   H23       1.0  0.23320  0.36653  0.33361  1.0000
  H   H24       1.0  0.13854  0.27334  0.33359  1.0000
  H   H25       1.0  0.14001  0.36800  0.33348  1.0000
  C   C32       1.0  0.37413  0.18726  0.34202  1.0000
  C   C33       1.0  0.35489  0.15073  0.34193  1.0000
  C   C34       1.0  0.31835  0.13241  0.34201  1.0000
  C   C35       1.0  0.30105  0.15164  0.34199  1.0000
  C   C36       1.0  0.31927  0.18819  0.34206  1.0000
  C   C37       1.0  0.35580  0.20548  0.34198  1.0000
  H   H26       1.0  0.27461  0.13875  0.34226  1.0000
  H   H27       1.0  0.36935  0.23192  0.34225  1.0000
  H   H28       1.0  0.36778  0.13718  0.34214  1.0000
  C   C38       1.0  0.23490  0.30682  0.38970  1.0000
  N   N6        1.0  0.25102  0.28808  0.38715  1.0000
  C   C39       1.0  0.26449  0.24452  0.34278  1.0000
  C   C40       1.0  0.29224  0.25355  0.40507  1.0000
  C   C41       1.0  0.31007  0.23468  0.40310  1.0000
  C   C42       1.0  0.30128  0.20711  0.34301  1.0000
  H   H29       1.0  0.32960  0.24061  0.44791  1.0000
  H   H30       1.0  0.24318  0.32658  0.43482  1.0000
  C   C43       1.0  0.30378  0.28157  0.47319  1.0000
  H   H31       1.0  0.28239  0.27637  0.51784  1.0000
  H   H32       1.0  0.31294  0.30636  0.43987  1.0000
  H   H33       1.0  0.32489  0.28407  0.51529  1.0000
  C   C44       1.0  0.19968  0.42942  0.38949  1.0000
  N   N7        1.0  0.21842  0.46428  0.38694  1.0000
  C   C45       1.0  0.26203  0.02131  0.34273  1.0000
  C   C46       1.0  0.25305  0.04002  0.40517  1.0000
  C   C47       1.0  0.27191  0.07672  0.40318  1.0000
  C   C48       1.0  0.29943  0.09550  0.34294  1.0000
  H   H34       1.0  0.26602  0.09032  0.44808  1.0000
  H   H35       1.0  0.17987  0.41794  0.43450  1.0000
  C   C49       1.0  0.22510  0.02353  0.47348  1.0000
  H   H36       1.0  0.23033  0.50731  0.51794  1.0000
  H   H37       1.0  0.20028  0.00793  0.44032  1.0000
  H   H38       1.0  0.22267  0.04214  0.51574  1.0000
  C   C50       1.0  0.48524  0.24205  0.34273  1.0000
  C   C51       1.0  0.46652  0.21428  0.40499  1.0000
  C   C52       1.0  0.42982  0.19646  0.40303  1.0000
  C   C53       1.0  0.41104  0.20526  0.34295  1.0000
  H   H39       1.0  0.41622  0.17692  0.44781  1.0000
  C   C54       1.0  0.48301  0.20274  0.47309  1.0000
  H   H40       1.0  0.99920  0.22412  0.51776  1.0000
  H   H41       1.0  0.49863  0.19359  0.43974  1.0000
  H   H42       1.0  0.46440  0.18162  0.51515  1.0000
  C   C55       1.0  0.20665  0.79816  0.33275  1.0000
  C   C56       1.0  0.24333  0.76061  0.33330  1.0000
  C   C57       1.0  0.21491  0.75091  0.27286  1.0000
  C   C58       1.0  0.19722  0.76991  0.27454  1.0000
  H   H43       1.0  0.17723  0.76350  0.23090  1.0000
  C   C59       1.0  0.27370  0.69908  0.28415  1.0000
  N   N8        1.0  0.25752  0.71776  0.28692  1.0000
  H   H44       1.0  0.26596  0.67981  0.23771  1.0000
  C   C60       1.0  0.20241  0.72194  0.20733  1.0000
  H   H45       1.0  0.22302  0.72669  0.16036  1.0000
  H   H46       1.0  0.18046  0.71861  0.16750  1.0000
  H   H47       1.0  0.19411  0.69769  0.24272  1.0000
  C   C61       1.0  0.20839  0.90982  0.33269  1.0000
  C   C62       1.0  0.24594  0.98406  0.33325  1.0000
  C   C63       1.0  0.25568  0.96533  0.27296  1.0000
  C   C64       1.0  0.23668  0.92864  0.27462  1.0000
  H   H48       1.0  0.24312  0.91506  0.23108  1.0000
  C   C65       1.0  0.30740  0.57595  0.28394  1.0000
  N   N9        1.0  0.28873  0.54109  0.28671  1.0000
  H   H49       1.0  0.32663  0.58748  0.23738  1.0000
  C   C66       1.0  0.28473  0.98180  0.20763  1.0000
  H   H50       1.0  0.28002  0.49764  0.16048  1.0000
  H   H51       1.0  0.28813  0.96318  0.16799  1.0000
  H   H52       1.0  0.30894  0.99777  0.24317  1.0000
  C   C67       1.0  0.43059  0.73284  0.28412  1.0000
  N   N10       1.0  0.46545  0.74902  0.28688  1.0000
  H   H53       1.0  0.41907  0.74059  0.23769  1.0000
  H   H54       1.0  0.50887  0.78350  0.16028  1.0000
  C   C68       1.0  0.13368  0.81793  0.33367  1.0000
  C   C69       1.0  0.15292  0.85447  0.33373  1.0000
  C   C70       1.0  0.18946  0.87286  0.33367  1.0000
  C   C71       1.0  0.20676  0.85362  0.33381  1.0000
  C   C72       1.0  0.18861  0.81707  0.33373  1.0000
  C   C73       1.0  0.15207  0.79977  0.33381  1.0000
  H   H55       1.0  0.23320  0.86652  0.33361  1.0000
  H   H56       1.0  0.13854  0.77334  0.33359  1.0000
  H   H57       1.0  0.14001  0.86799  0.33348  1.0000
  C   C74       1.0  0.37413  0.68726  0.34202  1.0000
  C   C75       1.0  0.35489  0.65073  0.34193  1.0000
  C   C76       1.0  0.31835  0.63241  0.34202  1.0000
  C   C77       1.0  0.30105  0.65164  0.34199  1.0000
  C   C78       1.0  0.31927  0.68819  0.34206  1.0000
  C   C79       1.0  0.35580  0.70548  0.34198  1.0000
  H   H58       1.0  0.27461  0.63875  0.34227  1.0000
  H   H59       1.0  0.36935  0.73192  0.34225  1.0000
  H   H60       1.0  0.36778  0.63718  0.34214  1.0000
  C   C80       1.0  0.23490  0.80681  0.38971  1.0000
  N   N11       1.0  0.25102  0.78808  0.38716  1.0000
  C   C81       1.0  0.26449  0.74452  0.34279  1.0000
  C   C82       1.0  0.29224  0.75355  0.40506  1.0000
  C   C83       1.0  0.31007  0.73468  0.40310  1.0000
  C   C84       1.0  0.30128  0.70711  0.34301  1.0000
  H   H61       1.0  0.32961  0.74061  0.44790  1.0000
  H   H62       1.0  0.24318  0.82658  0.43483  1.0000
  C   C85       1.0  0.30378  0.78158  0.47319  1.0000
  H   H63       1.0  0.28239  0.77638  0.51783  1.0000
  H   H64       1.0  0.31294  0.80636  0.43985  1.0000
  H   H65       1.0  0.32490  0.78408  0.51527  1.0000
  C   C86       1.0  0.19968  0.92942  0.38949  1.0000
  N   N12       1.0  0.21842  0.96428  0.38694  1.0000
  C   C87       1.0  0.26203  0.52131  0.34273  1.0000
  C   C88       1.0  0.25305  0.54002  0.40517  1.0000
  C   C89       1.0  0.27191  0.57672  0.40318  1.0000
  C   C90       1.0  0.29943  0.59549  0.34294  1.0000
  H   H66       1.0  0.26602  0.59032  0.44808  1.0000
  H   H67       1.0  0.17987  0.91794  0.43450  1.0000
  C   C91       1.0  0.22510  0.52353  0.47347  1.0000
  H   H68       1.0  0.23034  0.00731  0.51794  1.0000
  H   H69       1.0  0.20027  0.50793  0.44031  1.0000
  H   H70       1.0  0.22266  0.54214  0.51574  1.0000
  C   C92       1.0  0.48524  0.74204  0.34273  1.0000
  C   C93       1.0  0.46652  0.71429  0.40499  1.0000
  C   C94       1.0  0.42982  0.69646  0.40303  1.0000
  C   C95       1.0  0.41104  0.70526  0.34295  1.0000
  H   H71       1.0  0.41622  0.67692  0.44781  1.0000
  C   C96       1.0  0.48301  0.70274  0.47309  1.0000
  H   H72       1.0  0.99920  0.72412  0.51776  1.0000
  H   H73       1.0  0.49864  0.69359  0.43974  1.0000
  H   H74       1.0  0.46440  0.68162  0.51515  1.0000
  C   C97       1.0  0.70665  0.29815  0.33275  1.0000
  C   C98       1.0  0.74333  0.26061  0.33330  1.0000
  C   C99       1.0  0.71491  0.25091  0.27287  1.0000
  C   C100      1.0  0.69721  0.26991  0.27454  1.0000
  H   H75       1.0  0.67723  0.26350  0.23091  1.0000
  C   C101      1.0  0.77370  0.19909  0.28415  1.0000
  N   N13       1.0  0.75752  0.21776  0.28691  1.0000
  H   H76       1.0  0.76596  0.17982  0.23769  1.0000
  C   C102      1.0  0.70241  0.22194  0.20733  1.0000
  H   H77       1.0  0.72302  0.22668  0.16036  1.0000
  H   H78       1.0  0.68045  0.21860  0.16752  1.0000
  H   H79       1.0  0.69411  0.19769  0.24273  1.0000
  C   C103      1.0  0.70838  0.40982  0.33269  1.0000
  C   C104      1.0  0.74594  0.48406  0.33326  1.0000
  C   C105      1.0  0.75569  0.46533  0.27296  1.0000
  C   C106      1.0  0.73668  0.42863  0.27462  1.0000
  H   H80       1.0  0.74312  0.41506  0.23108  1.0000
  C   C107      1.0  0.80740  0.07595  0.28393  1.0000
  N   N14       1.0  0.78873  0.04109  0.28671  1.0000
  H   H81       1.0  0.82663  0.08748  0.23738  1.0000
  C   C108      1.0  0.78473  0.48180  0.20762  1.0000
  H   H82       1.0  0.78002  0.99764  0.16048  1.0000
  H   H83       1.0  0.78812  0.46318  0.16798  1.0000
  H   H84       1.0  0.80893  0.49777  0.24317  1.0000
  C   C109      1.0  0.59672  0.29989  0.33270  1.0000
  C   C110      1.0  0.52249  0.26320  0.33325  1.0000
  C   C111      1.0  0.54121  0.29162  0.27279  1.0000
  C   C112      1.0  0.57791  0.30932  0.27446  1.0000
  H   H85       1.0  0.59149  0.32929  0.23082  1.0000
  C   C113      1.0  0.93059  0.23284  0.28413  1.0000
  N   N15       1.0  0.96545  0.24902  0.28688  1.0000
  H   H86       1.0  0.91907  0.24059  0.23769  1.0000
  C   C114      1.0  0.52474  0.30411  0.20723  1.0000
  H   H87       1.0  0.54336  0.32606  0.16739  1.0000
  H   H88       1.0  0.50880  0.31242  0.24261  1.0000
  C   C115      1.0  0.63368  0.31793  0.33368  1.0000
  C   C116      1.0  0.65292  0.35447  0.33373  1.0000
  C   C117      1.0  0.68947  0.37286  0.33367  1.0000
  C   C118      1.0  0.70676  0.35362  0.33381  1.0000
  C   C119      1.0  0.68861  0.31707  0.33373  1.0000
  C   C120      1.0  0.65207  0.29978  0.33381  1.0000
  H   H89       1.0  0.73320  0.36653  0.33361  1.0000
  H   H90       1.0  0.63854  0.27334  0.33359  1.0000
  H   H91       1.0  0.64001  0.36800  0.33348  1.0000
  C   C121      1.0  0.87413  0.18726  0.34202  1.0000
  C   C122      1.0  0.85489  0.15073  0.34193  1.0000
  C   C123      1.0  0.81835  0.13241  0.34201  1.0000
  C   C124      1.0  0.80105  0.15164  0.34199  1.0000
  C   C125      1.0  0.81927  0.18819  0.34206  1.0000
  C   C126      1.0  0.85580  0.20548  0.34198  1.0000
  H   H92       1.0  0.77461  0.13875  0.34226  1.0000
  H   H93       1.0  0.86936  0.23192  0.34225  1.0000
  H   H94       1.0  0.86778  0.13718  0.34214  1.0000
  C   C127      1.0  0.73490  0.30682  0.38970  1.0000
  N   N16       1.0  0.75103  0.28808  0.38715  1.0000
  C   C128      1.0  0.76449  0.24452  0.34278  1.0000
  C   C129      1.0  0.79224  0.25355  0.40507  1.0000
  C   C130      1.0  0.81007  0.23468  0.40310  1.0000
  C   C131      1.0  0.80128  0.20711  0.34301  1.0000
  H   H95       1.0  0.82960  0.24061  0.44791  1.0000
  H   H96       1.0  0.74318  0.32658  0.43482  1.0000
  C   C132      1.0  0.80378  0.28157  0.47319  1.0000
  H   H97       1.0  0.78239  0.27637  0.51784  1.0000
  H   H98       1.0  0.81294  0.30636  0.43987  1.0000
  H   H99       1.0  0.82489  0.28407  0.51529  1.0000
  C   C133      1.0  0.69968  0.42942  0.38949  1.0000
  N   N17       1.0  0.71842  0.46428  0.38694  1.0000
  C   C134      1.0  0.76203  0.02131  0.34273  1.0000
  C   C135      1.0  0.75305  0.04002  0.40517  1.0000
  C   C136      1.0  0.77191  0.07672  0.40318  1.0000
  C   C137      1.0  0.79943  0.09550  0.34294  1.0000
  H   H100      1.0  0.76602  0.09032  0.44808  1.0000
  H   H101      1.0  0.67987  0.41794  0.43450  1.0000
  C   C138      1.0  0.72511  0.02353  0.47348  1.0000
  H   H102      1.0  0.73033  0.50731  0.51794  1.0000
  H   H103      1.0  0.70028  0.00793  0.44032  1.0000
  H   H104      1.0  0.72267  0.04214  0.51574  1.0000
  C   C139      1.0  0.57713  0.27164  0.38968  1.0000
  N   N18       1.0  0.54227  0.25552  0.38712  1.0000
  C   C140      1.0  0.98524  0.24205  0.34273  1.0000
  C   C141      1.0  0.96652  0.21428  0.40499  1.0000
  C   C142      1.0  0.92982  0.19646  0.40303  1.0000
  C   C143      1.0  0.91104  0.20526  0.34295  1.0000
  H   H105      1.0  0.91622  0.17692  0.44781  1.0000
  H   H106      1.0  0.58861  0.26337  0.43481  1.0000
  C   C144      1.0  0.98301  0.20274  0.47309  1.0000
  H   H107      1.0  0.49919  0.22412  0.51776  1.0000
  H   H108      1.0  0.99864  0.19359  0.43974  1.0000
  H   H109      1.0  0.96440  0.18162  0.51515  1.0000
  C   C145      1.0  0.70665  0.79816  0.33275  1.0000
  C   C146      1.0  0.74333  0.76061  0.33330  1.0000
  C   C147      1.0  0.71491  0.75091  0.27286  1.0000
  C   C148      1.0  0.69722  0.76991  0.27454  1.0000
  H   H110      1.0  0.67723  0.76350  0.23090  1.0000
  C   C149      1.0  0.77370  0.69908  0.28415  1.0000
  N   N19       1.0  0.75752  0.71776  0.28692  1.0000
  H   H111      1.0  0.76596  0.67981  0.23771  1.0000
  C   C150      1.0  0.70241  0.72194  0.20733  1.0000
  H   H112      1.0  0.72303  0.72669  0.16036  1.0000
  H   H113      1.0  0.68046  0.71861  0.16750  1.0000
  H   H114      1.0  0.69411  0.69769  0.24272  1.0000
  C   C151      1.0  0.70839  0.90982  0.33269  1.0000
  C   C152      1.0  0.74594  0.98406  0.33325  1.0000
  C   C153      1.0  0.75569  0.96533  0.27296  1.0000
  C   C154      1.0  0.73668  0.92864  0.27462  1.0000
  H   H115      1.0  0.74313  0.91506  0.23108  1.0000
  C   C155      1.0  0.80740  0.57595  0.28394  1.0000
  N   N20       1.0  0.78873  0.54109  0.28671  1.0000
  H   H116      1.0  0.82663  0.58748  0.23738  1.0000
  C   C156      1.0  0.78473  0.98180  0.20763  1.0000
  H   H117      1.0  0.78002  0.49764  0.16048  1.0000
  H   H118      1.0  0.78813  0.96318  0.16799  1.0000
  H   H119      1.0  0.80893  0.99777  0.24317  1.0000
  C   C157      1.0  0.59672  0.79989  0.33269  1.0000
  C   C158      1.0  0.52249  0.76321  0.33325  1.0000
  C   C159      1.0  0.54121  0.79162  0.27279  1.0000
  C   C160      1.0  0.57791  0.80932  0.27446  1.0000
  H   H120      1.0  0.59148  0.82930  0.23082  1.0000
  C   C161      1.0  0.93059  0.73284  0.28412  1.0000
  N   N21       1.0  0.96545  0.74902  0.28688  1.0000
  H   H121      1.0  0.91907  0.74059  0.23769  1.0000
  C   C162      1.0  0.52474  0.80411  0.20723  1.0000
  H   H122      1.0  0.54336  0.82606  0.16739  1.0000
  H   H123      1.0  0.50880  0.81242  0.24261  1.0000
  C   C163      1.0  0.63368  0.81793  0.33367  1.0000
  C   C164      1.0  0.65292  0.85447  0.33373  1.0000
  C   C165      1.0  0.68947  0.87286  0.33367  1.0000
  C   C166      1.0  0.70676  0.85362  0.33381  1.0000
  C   C167      1.0  0.68861  0.81707  0.33373  1.0000
  C   C168      1.0  0.65207  0.79977  0.33381  1.0000
  H   H124      1.0  0.73320  0.86652  0.33361  1.0000
  H   H125      1.0  0.63854  0.77334  0.33359  1.0000
  H   H126      1.0  0.64001  0.86799  0.33348  1.0000
  C   C169      1.0  0.87413  0.68726  0.34202  1.0000
  C   C170      1.0  0.85489  0.65073  0.34193  1.0000
  C   C171      1.0  0.81835  0.63241  0.34202  1.0000
  C   C172      1.0  0.80105  0.65164  0.34199  1.0000
  C   C173      1.0  0.81927  0.68819  0.34206  1.0000
  C   C174      1.0  0.85580  0.70548  0.34198  1.0000
  H   H127      1.0  0.77461  0.63875  0.34227  1.0000
  H   H128      1.0  0.86935  0.73192  0.34225  1.0000
  H   H129      1.0  0.86778  0.63718  0.34214  1.0000
  C   C175      1.0  0.73490  0.80681  0.38971  1.0000
  N   N22       1.0  0.75102  0.78808  0.38716  1.0000
  C   C176      1.0  0.76449  0.74452  0.34279  1.0000
  C   C177      1.0  0.79225  0.75355  0.40506  1.0000
  C   C178      1.0  0.81007  0.73468  0.40310  1.0000
  C   C179      1.0  0.80128  0.70711  0.34301  1.0000
  H   H130      1.0  0.82961  0.74061  0.44790  1.0000
  H   H131      1.0  0.74318  0.82658  0.43483  1.0000
  C   C180      1.0  0.80378  0.78158  0.47319  1.0000
  H   H132      1.0  0.78239  0.77638  0.51783  1.0000
  H   H133      1.0  0.81294  0.80636  0.43985  1.0000
  H   H134      1.0  0.82490  0.78408  0.51527  1.0000
  C   C181      1.0  0.69968  0.92942  0.38949  1.0000
  N   N23       1.0  0.71842  0.96428  0.38694  1.0000
  C   C182      1.0  0.76203  0.52131  0.34273  1.0000
  C   C183      1.0  0.75305  0.54002  0.40517  1.0000
  C   C184      1.0  0.77191  0.57672  0.40318  1.0000
  C   C185      1.0  0.79943  0.59549  0.34294  1.0000
  H   H135      1.0  0.76602  0.59032  0.44808  1.0000
  H   H136      1.0  0.67987  0.91794  0.43450  1.0000
  C   C186      1.0  0.72510  0.52353  0.47347  1.0000
  H   H137      1.0  0.73033  0.00731  0.51794  1.0000
  H   H138      1.0  0.70027  0.50793  0.44031  1.0000
  H   H139      1.0  0.72266  0.54214  0.51574  1.0000
  C   C187      1.0  0.57713  0.77164  0.38967  1.0000
  N   N24       1.0  0.54227  0.75552  0.38712  1.0000
  C   C188      1.0  0.98524  0.74204  0.34273  1.0000
  C   C189      1.0  0.96652  0.71429  0.40499  1.0000
  C   C190      1.0  0.92982  0.69646  0.40303  1.0000
  C   C191      1.0  0.91105  0.70526  0.34295  1.0000
  H   H140      1.0  0.91622  0.67692  0.44781  1.0000
  H   H141      1.0  0.58861  0.76337  0.43481  1.0000
  C   C192      1.0  0.98301  0.70274  0.47309  1.0000
  H   H142      1.0  0.49920  0.72412  0.51776  1.0000
  H   H143      1.0  0.99864  0.69359  0.43974  1.0000
  H   H144      1.0  0.96440  0.68162  0.51515  1.0000
