data_image0
_chemical_formula_structural       C17H12C17H12NCHNCHNCHC13H9C13H9C2NC2NC2NC2NC2NC2N
_chemical_formula_sum              "C75 H45 N9"
_cell_length_a       37.3436
_cell_length_b       37.3182
_cell_length_c       14.8887
_cell_angle_alpha    90
_cell_angle_beta     90
_cell_angle_gamma    120.036

_space_group_name_H-M_alt    "P 1"
_space_group_IT_number       1

loop_
  _space_group_symop_operation_xyz
  'x, y, z'

loop_
  _atom_site_type_symbol
  _atom_site_label
  _atom_site_symmetry_multiplicity
  _atom_site_fract_x
  _atom_site_fract_y
  _atom_site_fract_z
  _atom_site_occupancy
  C   C1        1.0  0.47672  0.89124  0.30769  1.0000
  C   C2        1.0  0.45352  0.84771  0.31226  1.0000
  C   C3        1.0  0.38841  0.75687  0.29376  1.0000
  C   C4        1.0  0.36381  0.71419  0.30215  1.0000
  C   C5        1.0  0.32016  0.69495  0.30175  1.0000
  C   C6        1.0  0.29498  0.65135  0.30211  1.0000
  C   C7        1.0  0.31419  0.62690  0.30128  1.0000
  C   C8        1.0  0.35776  0.64534  0.30169  1.0000
  C   C9        1.0  0.38222  0.68903  0.30133  1.0000
  C   C10       1.0  0.37581  0.62075  0.29317  1.0000
  C   C11       1.0  0.42211  0.59684  0.34487  1.0000
  C   C12       1.0  0.40159  0.55573  0.31185  1.0000
  C   C13       1.0  0.42190  0.53255  0.30718  1.0000
  C   C14       1.0  0.25231  0.63331  0.29391  1.0000
  C   C15       1.0  0.18205  0.58634  0.34460  1.0000
  C   C16       1.0  0.15733  0.54457  0.37138  1.0000
  C   C17       1.0  0.11386  0.52459  0.36783  1.0000
  H   H1        1.0  0.50651  0.90458  0.28498  1.0000
  H   H2        1.0  0.46727  0.83122  0.29227  1.0000
  H   H3        1.0  0.41381  0.70268  0.29800  1.0000
  H   H4        1.0  0.30654  0.71293  0.29880  1.0000
  H   H5        1.0  0.29622  0.59528  0.29796  1.0000
  H   H6        1.0  0.40536  0.50264  0.28509  1.0000
  H   H7        1.0  0.37126  0.54187  0.29242  1.0000
  H   H8        1.0  0.09734  0.49429  0.38772  1.0000
  H   H9        1.0  0.17079  0.52819  0.39424  1.0000
  H   H10       1.0  0.36817  0.60270  0.23917  1.0000
  H   H11       1.0  0.40630  0.76733  0.23955  1.0000
  H   H12       1.0  0.24188  0.64165  0.24105  1.0000
  C   C18       1.0  0.53487  0.11718  0.35028  1.0000
  C   C19       1.0  0.55948  0.16062  0.35161  1.0000
  C   C20       1.0  0.62258  0.25030  0.30109  1.0000
  C   C21       1.0  0.64751  0.29323  0.30694  1.0000
  C   C22       1.0  0.69124  0.31292  0.30658  1.0000
  C   C23       1.0  0.71637  0.35656  0.30700  1.0000
  C   C24       1.0  0.69671  0.38063  0.30612  1.0000
  C   C25       1.0  0.65310  0.36209  0.30657  1.0000
  C   C26       1.0  0.62902  0.31834  0.30608  1.0000
  C   C27       1.0  0.63515  0.38703  0.30047  1.0000
  C   C28       1.0  0.58454  0.40653  0.34188  1.0000
  C   C29       1.0  0.60849  0.45004  0.35095  1.0000
  C   C30       1.0  0.58969  0.47464  0.34962  1.0000
  C   C31       1.0  0.75928  0.37451  0.30127  1.0000
  C   C32       1.0  0.82943  0.42528  0.34222  1.0000
  C   C33       1.0  0.85484  0.46838  0.32893  1.0000
  C   C34       1.0  0.89825  0.48692  0.32758  1.0000
  H   H13       1.0  0.50348  0.10426  0.35559  1.0000
  H   H14       1.0  0.54533  0.17785  0.36024  1.0000
  H   H15       1.0  0.59741  0.30448  0.30315  1.0000
  H   H16       1.0  0.70506  0.29513  0.30401  1.0000
  H   H17       1.0  0.71448  0.41225  0.30315  1.0000
  H   H18       1.0  0.60818  0.50603  0.35531  1.0000
  H   H19       1.0  0.63984  0.46419  0.35996  1.0000
  H   H20       1.0  0.91557  0.51832  0.31927  1.0000
  H   H21       1.0  0.84195  0.48679  0.32079  1.0000
  H   H22       1.0  0.64827  0.41098  0.25844  1.0000
  H   H23       1.0  0.59872  0.23942  0.25885  1.0000
  H   H24       1.0  0.77012  0.36105  0.26028  1.0000
  N   N1        1.0  0.49703  0.47320  0.27932  1.0000
  C   C35       1.0  0.47565  0.49371  0.27358  1.0000
  H   H25       1.0  0.45450  0.48609  0.22318  1.0000
  N   N2        1.0  0.53628  0.02588  0.28045  1.0000
  C   C36       1.0  0.51573  0.98394  0.27469  1.0000
  H   H26       1.0  0.52334  0.97041  0.22430  1.0000
  N   N3        1.0  0.98371  0.51203  0.27979  1.0000
  C   C37       1.0  0.02562  0.53324  0.27382  1.0000
  H   H27       1.0  0.03927  0.55424  0.22315  1.0000
  C   C38       1.0  0.46020  0.91604  0.33772  1.0000
  C   C39       1.0  0.41256  0.82711  0.34597  1.0000
  C   C40       1.0  0.39603  0.85177  0.37629  1.0000
  C   C41       1.0  0.41939  0.89527  0.37244  1.0000
  C   C42       1.0  0.38901  0.78407  0.35396  1.0000
  C   C43       1.0  0.40265  0.62037  0.35298  1.0000
  C   C44       1.0  0.46342  0.61353  0.37448  1.0000
  C   C45       1.0  0.46332  0.54922  0.33658  1.0000
  C   C46       1.0  0.48353  0.59018  0.37064  1.0000
  C   C47       1.0  0.22505  0.60566  0.35257  1.0000
  C   C48       1.0  0.16158  0.60744  0.31462  1.0000
  C   C49       1.0  0.09328  0.54541  0.33676  1.0000
  C   C50       1.0  0.11809  0.58725  0.31010  1.0000
  H   H28       1.0  0.40592  0.91167  0.39491  1.0000
  H   H29       1.0  0.36664  0.83824  0.40189  1.0000
  H   H30       1.0  0.17813  0.63806  0.29734  1.0000
  H   H31       1.0  0.47938  0.64304  0.39956  1.0000
  H   H32       1.0  0.51349  0.60376  0.39258  1.0000
  H   H33       1.0  0.10475  0.60412  0.29016  1.0000
  H   H34       1.0  0.41014  0.63906  0.40604  1.0000
  H   H35       1.0  0.37048  0.77285  0.40722  1.0000
  H   H36       1.0  0.23618  0.59746  0.40454  1.0000
  C   C51       1.0  0.55287  0.09178  0.34151  1.0000
  C   C52       1.0  0.60298  0.18018  0.34312  1.0000
  C   C53       1.0  0.62102  0.15495  0.33277  1.0000
  C   C54       1.0  0.59632  0.11149  0.33099  1.0000
  C   C55       1.0  0.62809  0.22295  0.34948  1.0000
  C   C56       1.0  0.60214  0.38141  0.34839  1.0000
  C   C57       1.0  0.54129  0.38848  0.33101  1.0000
  C   C58       1.0  0.54631  0.45664  0.34036  1.0000
  C   C59       1.0  0.52257  0.41318  0.32926  1.0000
  C   C60       1.0  0.78671  0.40788  0.34830  1.0000
  C   C61       1.0  0.84874  0.40128  0.35405  1.0000
  C   C62       1.0  0.91776  0.46317  0.34136  1.0000
  C   C63       1.0  0.89214  0.41991  0.35295  1.0000
  H   H37       1.0  0.61061  0.09428  0.32494  1.0000
  H   H38       1.0  0.65245  0.16801  0.32709  1.0000
  H   H39       1.0  0.83138  0.37003  0.36474  1.0000
  H   H40       1.0  0.52291  0.35704  0.32494  1.0000
  H   H41       1.0  0.49108  0.39886  0.32286  1.0000
  H   H42       1.0  0.90484  0.40134  0.36043  1.0000
  H   H43       1.0  0.58884  0.35757  0.39060  1.0000
  H   H44       1.0  0.65184  0.23354  0.39189  1.0000
  H   H45       1.0  0.77626  0.42155  0.38958  1.0000
  C   C64       1.0  0.52670  0.48112  0.34195  1.0000
  C   C65       1.0  0.48394  0.52563  0.33560  1.0000
  N   N4        1.0  0.51334  0.53319  0.39858  1.0000
  C   C66       1.0  0.53500  0.51298  0.40487  1.0000
  C   C67       1.0  0.56012  0.52278  0.47273  1.0000
  N   N5        1.0  0.58218  0.53143  0.53287  1.0000
  C   C68       1.0  0.52836  0.04765  0.34304  1.0000
  C   C69       1.0  0.48381  0.96030  0.33668  1.0000
  N   N6        1.0  0.47626  0.98218  0.39960  1.0000
  C   C70       1.0  0.49648  0.02409  0.40586  1.0000
  C   C71       1.0  0.48669  0.03944  0.47370  1.0000
  N   N7        1.0  0.47806  0.05290  0.53379  1.0000
  C   C72       1.0  0.96187  0.48263  0.34295  1.0000
  C   C73       1.0  0.04911  0.52495  0.33609  1.0000
  N   N8        1.0  0.02726  0.49588  0.39968  1.0000
  C   C74       1.0  0.98538  0.47444  0.40620  1.0000
  C   C75       1.0  0.97008  0.44987  0.47497  1.0000
  N   N9        1.0  0.95671  0.42831  0.53595  1.0000
