data_image0
_chemical_formula_structural       C4H2CNHNCHNC5H3NC5H3C5NH3C5NH3C5NH3C5NH3C5NH3C5NH3C24H15C24H15C24H15C24H15C24H15C24H15C4H2C5NH3C5NH3NC5H3NC5H3NC5H3NC5H3NC5H3NC5H3
_chemical_formula_sum              "C234 H144 N18"
_cell_length_a       77.2909
_cell_length_b       77.2908
_cell_length_c       14.972
_cell_angle_alpha    90
_cell_angle_beta     90
_cell_angle_gamma    120

_space_group_name_H-M_alt    "P 1"
_space_group_IT_number       1

loop_
  _space_group_symop_operation_xyz
  'x, y, z'

loop_
  _atom_site_type_symbol
  _atom_site_label
  _atom_site_symmetry_multiplicity
  _atom_site_fract_x
  _atom_site_fract_y
  _atom_site_fract_z
  _atom_site_occupancy
  C   C1        1.0  0.01207  0.50683  0.33190  1.0000
  C   C2        1.0  0.02230  0.51216  0.24915  1.0000
  C   C3        1.0  0.04333  0.52262  0.24722  1.0000
  C   C4        1.0  0.05463  0.52789  0.32711  1.0000
  H   H1        1.0  0.01468  0.50850  0.18994  1.0000
  H   H2        1.0  0.05032  0.52598  0.18646  1.0000
  C   C5        1.0  0.04373  0.52223  0.40806  1.0000
  N   N1        1.0  0.02346  0.51225  0.40725  1.0000
  H   H3        1.0  0.05082  0.52579  0.46848  1.0000
  N   N2        1.0  0.97939  0.49016  0.26329  1.0000
  C   C6        1.0  0.95913  0.47985  0.26249  1.0000
  H   H4        1.0  0.95203  0.47630  0.20206  1.0000
  N   N3        1.0  0.51217  0.48970  0.26332  1.0000
  C   C7        1.0  0.52247  0.47973  0.26252  1.0000
  C   C8        1.0  0.49552  0.50573  0.33190  1.0000
  C   C9        1.0  0.49019  0.51063  0.24914  1.0000
  C   C10       1.0  0.47974  0.52120  0.24720  1.0000
  C   C11       1.0  0.47447  0.52723  0.32708  1.0000
  H   H5        1.0  0.49385  0.50667  0.18994  1.0000
  H   H6        1.0  0.47638  0.52483  0.18643  1.0000
  H   H7        1.0  0.52603  0.47619  0.20210  1.0000
  N   N4        1.0  0.51263  0.02293  0.26335  1.0000
  C   C12       1.0  0.52260  0.04320  0.26254  1.0000
  C   C13       1.0  0.49661  0.99026  0.33195  1.0000
  C   C14       1.0  0.49171  0.98003  0.24919  1.0000
  C   C15       1.0  0.48114  0.95900  0.24726  1.0000
  C   C16       1.0  0.47512  0.94770  0.32715  1.0000
  H   H8        1.0  0.49568  0.98765  0.18999  1.0000
  H   H9        1.0  0.47752  0.95200  0.18650  1.0000
  H   H10       1.0  0.52613  0.05029  0.20211  1.0000
  C   C17       1.0  0.31581  0.53820  0.33415  1.0000
  C   C18       1.0  0.30725  0.53933  0.25233  1.0000
  C   C19       1.0  0.28785  0.53664  0.24928  1.0000
  C   C20       1.0  0.27661  0.53280  0.32885  1.0000
  C   C21       1.0  0.23509  0.54029  0.25852  1.0000
  N   N5        1.0  0.25132  0.53789  0.25943  1.0000
  H   H11       1.0  0.23183  0.54511  0.20074  1.0000
  H   H12       1.0  0.31551  0.54338  0.19482  1.0000
  H   H13       1.0  0.28251  0.53846  0.18960  1.0000
  C   C22       1.0  0.46420  0.77811  0.33414  1.0000
  C   C23       1.0  0.46310  0.76844  0.25230  1.0000
  C   C24       1.0  0.46579  0.75173  0.24926  1.0000
  C   C25       1.0  0.46962  0.74432  0.32884  1.0000
  C   C26       1.0  0.46213  0.69532  0.25849  1.0000
  N   N6        1.0  0.46453  0.71395  0.25941  1.0000
  H   H14       1.0  0.45733  0.68724  0.20068  1.0000
  H   H15       1.0  0.45898  0.77260  0.19485  1.0000
  H   H16       1.0  0.46391  0.74454  0.18964  1.0000
  C   C27       1.0  0.22424  0.68654  0.33417  1.0000
  C   C28       1.0  0.23394  0.69510  0.25237  1.0000
  C   C29       1.0  0.25065  0.71450  0.24931  1.0000
  C   C30       1.0  0.25804  0.72574  0.32888  1.0000
  C   C31       1.0  0.30703  0.76728  0.25842  1.0000
  N   N7        1.0  0.28841  0.75105  0.25938  1.0000
  H   H17       1.0  0.31512  0.77054  0.20067  1.0000
  H   H18       1.0  0.22976  0.68683  0.19489  1.0000
  H   H19       1.0  0.25782  0.71982  0.18966  1.0000
  C   C32       1.0  0.68711  0.46360  0.33254  1.0000
  C   C33       1.0  0.69931  0.46958  0.25532  1.0000
  C   C34       1.0  0.71875  0.47242  0.25766  1.0000
  C   C35       1.0  0.72633  0.46908  0.33790  1.0000
  C   C36       1.0  0.77121  0.46850  0.25963  1.0000
  N   N8        1.0  0.75487  0.47062  0.26503  1.0000
  H   H20       1.0  0.77748  0.46964  0.19824  1.0000
  H   H21       1.0  0.69391  0.47138  0.19573  1.0000
  H   H22       1.0  0.72684  0.47607  0.19973  1.0000
  C   C37       1.0  0.53869  0.22395  0.33252  1.0000
  C   C38       1.0  0.53273  0.23017  0.25530  1.0000
  C   C39       1.0  0.52992  0.24680  0.25764  1.0000
  C   C40       1.0  0.53326  0.25771  0.33789  1.0000
  C   C41       1.0  0.53390  0.30321  0.25965  1.0000
  N   N9        1.0  0.53176  0.28473  0.26503  1.0000
  H   H23       1.0  0.53275  0.30833  0.19826  1.0000
  H   H24       1.0  0.53092  0.22297  0.19572  1.0000
  H   H25       1.0  0.52626  0.25123  0.19973  1.0000
  C   C42       1.0  0.77836  0.31521  0.33252  1.0000
  C   C43       1.0  0.77214  0.30302  0.25531  1.0000
  C   C44       1.0  0.75554  0.28357  0.25768  1.0000
  C   C45       1.0  0.74463  0.27600  0.33794  1.0000
  C   C46       1.0  0.69914  0.23113  0.25971  1.0000
  N   N10       1.0  0.71761  0.24747  0.26508  1.0000
  H   H26       1.0  0.69401  0.22486  0.19832  1.0000
  H   H27       1.0  0.77932  0.30842  0.19569  1.0000
  H   H28       1.0  0.75107  0.27550  0.19973  1.0000
  C   C47       1.0  0.17214  0.60222  0.33652  1.0000
  C   C48       1.0  0.15108  0.59141  0.32949  1.0000
  C   C49       1.0  0.14030  0.57022  0.32696  1.0000
  C   C50       1.0  0.15121  0.55996  0.32959  1.0000
  C   C51       1.0  0.17226  0.57033  0.33645  1.0000
  C   C52       1.0  0.18242  0.59141  0.33916  1.0000
  C   C53       1.0  0.11892  0.55948  0.32557  1.0000
  C   C54       1.0  0.10806  0.56506  0.26769  1.0000
  C   C55       1.0  0.08703  0.55464  0.26768  1.0000
  C   C56       1.0  0.07600  0.53835  0.32620  1.0000
  C   C57       1.0  0.08688  0.53281  0.38417  1.0000
  C   C58       1.0  0.10791  0.54312  0.38366  1.0000
  C   C59       1.0  0.18317  0.62348  0.34191  1.0000
  C   C60       1.0  0.18114  0.63554  0.27646  1.0000
  C   C61       1.0  0.19417  0.65638  0.27528  1.0000
  C   C62       1.0  0.20941  0.66587  0.34023  1.0000
  C   C63       1.0  0.21077  0.65381  0.40785  1.0000
  C   C64       1.0  0.19791  0.63302  0.40866  1.0000
  C   C65       1.0  0.18337  0.56021  0.34192  1.0000
  C   C66       1.0  0.19761  0.56503  0.41071  1.0000
  C   C67       1.0  0.21045  0.55709  0.41107  1.0000
  C   C68       1.0  0.20961  0.54410  0.34240  1.0000
  C   C69       1.0  0.19498  0.53885  0.27491  1.0000
  C   C70       1.0  0.18190  0.54661  0.27511  1.0000
  H   H29       1.0  0.19274  0.66453  0.22494  1.0000
  H   H30       1.0  0.17097  0.62912  0.22586  1.0000
  H   H31       1.0  0.22192  0.65985  0.45459  1.0000
  H   H32       1.0  0.19991  0.62480  0.45697  1.0000
  H   H33       1.0  0.19919  0.57492  0.45995  1.0000
  H   H34       1.0  0.22119  0.56182  0.45961  1.0000
  H   H35       1.0  0.17212  0.54318  0.22312  1.0000
  H   H36       1.0  0.19398  0.52962  0.22376  1.0000
  H   H37       1.0  0.11511  0.53877  0.42783  1.0000
  H   H38       1.0  0.07958  0.52099  0.42690  1.0000
  H   H39       1.0  0.07982  0.55937  0.22548  1.0000
  H   H40       1.0  0.11540  0.57671  0.22409  1.0000
  H   H41       1.0  0.14347  0.59910  0.33036  1.0000
  H   H42       1.0  0.19773  0.59908  0.34177  1.0000
  H   H43       1.0  0.14373  0.54466  0.32776  1.0000
  C   C71       1.0  0.40012  0.57040  0.33645  1.0000
  C   C72       1.0  0.41094  0.56016  0.32942  1.0000
  C   C73       1.0  0.43212  0.57056  0.32690  1.0000
  C   C74       1.0  0.44239  0.59173  0.32952  1.0000
  C   C75       1.0  0.43201  0.60241  0.33637  1.0000
  C   C76       1.0  0.41093  0.59149  0.33908  1.0000
  C   C77       1.0  0.44287  0.55993  0.32550  1.0000
  C   C78       1.0  0.43729  0.54349  0.26762  1.0000
  C   C79       1.0  0.44772  0.53288  0.26761  1.0000
  C   C80       1.0  0.46400  0.53814  0.32616  1.0000
  C   C81       1.0  0.46954  0.55456  0.38412  1.0000
  C   C82       1.0  0.45923  0.56527  0.38360  1.0000
  C   C83       1.0  0.37886  0.56016  0.34188  1.0000
  C   C84       1.0  0.36680  0.54607  0.27644  1.0000
  C   C85       1.0  0.34596  0.53826  0.27528  1.0000
  C   C86       1.0  0.33647  0.54402  0.34023  1.0000
  C   C87       1.0  0.34854  0.55744  0.40786  1.0000
  C   C88       1.0  0.36932  0.56536  0.40864  1.0000
  C   C89       1.0  0.44212  0.62364  0.34186  1.0000
  C   C90       1.0  0.43729  0.63305  0.41062  1.0000
  C   C91       1.0  0.44522  0.65384  0.41090  1.0000
  C   C92       1.0  0.45825  0.66600  0.34235  1.0000
  C   C93       1.0  0.46352  0.65661  0.27496  1.0000
  C   C94       1.0  0.45573  0.63577  0.27509  1.0000
  H   H44       1.0  0.33781  0.52869  0.22491  1.0000
  H   H45       1.0  0.37322  0.54232  0.22582  1.0000
  H   H46       1.0  0.34250  0.56255  0.45456  1.0000
  H   H47       1.0  0.37755  0.57558  0.45693  1.0000
  H   H48       1.0  0.42738  0.62475  0.45975  1.0000
  H   H49       1.0  0.44049  0.65985  0.45943  1.0000
  H   H50       1.0  0.45920  0.62942  0.22319  1.0000
  H   H51       1.0  0.47278  0.66485  0.22386  1.0000
  H   H52       1.0  0.46358  0.57683  0.42777  1.0000
  H   H53       1.0  0.48136  0.55909  0.42686  1.0000
  H   H54       1.0  0.44298  0.52094  0.22544  1.0000
  H   H55       1.0  0.42564  0.53918  0.22403  1.0000
  H   H56       1.0  0.40325  0.54486  0.33031  1.0000
  H   H57       1.0  0.40325  0.59911  0.34169  1.0000
  H   H58       1.0  0.45768  0.59955  0.32770  1.0000
  C   C95       1.0  0.43195  0.83018  0.33640  1.0000
  C   C96       1.0  0.44219  0.85124  0.32936  1.0000
  C   C97       1.0  0.43180  0.86203  0.32692  1.0000
  C   C98       1.0  0.41062  0.85111  0.32955  1.0000
  C   C99       1.0  0.39994  0.83007  0.33636  1.0000
  C   C100      1.0  0.41086  0.81990  0.33905  1.0000
  C   C101      1.0  0.44243  0.88340  0.32556  1.0000
  C   C102      1.0  0.45887  0.89426  0.26769  1.0000
  C   C103      1.0  0.46947  0.91530  0.26769  1.0000
  C   C104      1.0  0.46421  0.92632  0.32624  1.0000
  C   C105      1.0  0.44779  0.91544  0.38421  1.0000
  C   C106      1.0  0.43709  0.89441  0.38371  1.0000
  C   C107      1.0  0.44218  0.81915  0.34179  1.0000
  C   C108      1.0  0.45629  0.82120  0.27639  1.0000
  C   C109      1.0  0.46410  0.80818  0.27522  1.0000
  C   C110      1.0  0.45837  0.79295  0.34020  1.0000
  C   C111      1.0  0.44492  0.79156  0.40776  1.0000
  C   C112      1.0  0.43699  0.80442  0.40856  1.0000
  C   C113      1.0  0.37871  0.81895  0.34184  1.0000
  C   C114      1.0  0.36929  0.80470  0.41058  1.0000
  C   C115      1.0  0.34850  0.79186  0.41093  1.0000
  C   C116      1.0  0.33636  0.79272  0.34229  1.0000
  C   C117      1.0  0.34574  0.80739  0.27491  1.0000
  C   C118      1.0  0.36658  0.82042  0.27504  1.0000
  H   H59       1.0  0.47371  0.80963  0.22494  1.0000
  H   H60       1.0  0.46004  0.83137  0.22580  1.0000
  H   H61       1.0  0.43981  0.78041  0.45444  1.0000
  H   H62       1.0  0.42674  0.80239  0.45678  1.0000
  H   H63       1.0  0.37759  0.80308  0.45970  1.0000
  H   H64       1.0  0.34249  0.78109  0.45933  1.0000
  H   H65       1.0  0.37293  0.83026  0.22322  1.0000
  H   H66       1.0  0.33750  0.80841  0.22383  1.0000
  H   H67       1.0  0.42552  0.88721  0.42781  1.0000
  H   H68       1.0  0.44327  0.92273  0.42693  1.0000
  H   H69       1.0  0.48142  0.92251  0.22550  1.0000
  H   H70       1.0  0.46317  0.88693  0.22407  1.0000
  H   H71       1.0  0.45749  0.85885  0.33032  1.0000
  H   H72       1.0  0.40323  0.80460  0.34163  1.0000
  H   H73       1.0  0.40280  0.85859  0.32776  1.0000
  C   C119      1.0  0.83059  0.39946  0.33388  1.0000
  C   C120      1.0  0.85164  0.41014  0.34085  1.0000
  C   C121      1.0  0.86255  0.43132  0.34347  1.0000
  C   C122      1.0  0.85176  0.44171  0.34089  1.0000
  C   C123      1.0  0.83070  0.43146  0.33378  1.0000
  C   C124      1.0  0.82043  0.41037  0.33107  1.0000
  C   C125      1.0  0.88392  0.44195  0.34491  1.0000
  C   C126      1.0  0.89495  0.43659  0.28695  1.0000
  C   C127      1.0  0.91597  0.44731  0.28646  1.0000
  C   C128      1.0  0.92685  0.46375  0.34432  1.0000
  C   C129      1.0  0.91582  0.46903  0.40273  1.0000
  C   C130      1.0  0.89478  0.45841  0.40269  1.0000
  C   C131      1.0  0.81947  0.37823  0.32848  1.0000
  C   C132      1.0  0.82086  0.36612  0.39563  1.0000
  C   C133      1.0  0.80778  0.34528  0.39587  1.0000
  C   C134      1.0  0.79318  0.33589  0.32825  1.0000
  C   C135      1.0  0.79242  0.34802  0.25930  1.0000
  C   C136      1.0  0.80528  0.36881  0.25955  1.0000
  C   C137      1.0  0.81967  0.44169  0.32845  1.0000
  C   C138      1.0  0.80495  0.43652  0.26160  1.0000
  C   C139      1.0  0.79207  0.44442  0.26249  1.0000
  C   C140      1.0  0.79339  0.45780  0.33029  1.0000
  C   C141      1.0  0.80859  0.46350  0.39540  1.0000
  C   C142      1.0  0.82164  0.45570  0.39414  1.0000
  H   H74       1.0  0.80873  0.33705  0.44718  1.0000
  H   H75       1.0  0.83064  0.37248  0.44761  1.0000
  H   H76       1.0  0.78167  0.34202  0.21075  1.0000
  H   H77       1.0  0.80372  0.37711  0.21023  1.0000
  H   H78       1.0  0.80300  0.42635  0.21312  1.0000
  H   H79       1.0  0.78096  0.43936  0.21562  1.0000
  H   H80       1.0  0.83180  0.45944  0.44477  1.0000
  H   H81       1.0  0.81000  0.47305  0.44584  1.0000
  H   H82       1.0  0.88743  0.46273  0.44618  1.0000
  H   H83       1.0  0.92302  0.48099  0.44483  1.0000
  H   H84       1.0  0.92327  0.44277  0.24384  1.0000
  H   H85       1.0  0.88775  0.42502  0.24285  1.0000
  H   H86       1.0  0.85911  0.40232  0.34274  1.0000
  H   H87       1.0  0.80512  0.40274  0.32842  1.0000
  H   H88       1.0  0.85936  0.45701  0.34004  1.0000
  C   C143      1.0  0.60287  0.43160  0.33394  1.0000
  C   C144      1.0  0.59219  0.44197  0.34093  1.0000
  C   C145      1.0  0.57101  0.43170  0.34354  1.0000
  C   C146      1.0  0.56062  0.41052  0.34099  1.0000
  C   C147      1.0  0.57087  0.39971  0.33382  1.0000
  C   C148      1.0  0.59196  0.41053  0.33111  1.0000
  C   C149      1.0  0.56038  0.44244  0.34497  1.0000
  C   C150      1.0  0.56574  0.45883  0.28699  1.0000
  C   C151      1.0  0.55503  0.46913  0.28651  1.0000
  C   C152      1.0  0.53858  0.46357  0.34438  1.0000
  C   C153      1.0  0.53331  0.44727  0.40281  1.0000
  C   C154      1.0  0.54393  0.43684  0.40277  1.0000
  C   C155      1.0  0.62410  0.44172  0.32853  1.0000
  C   C156      1.0  0.63622  0.45521  0.39569  1.0000
  C   C157      1.0  0.65705  0.46295  0.39593  1.0000
  C   C158      1.0  0.66644  0.45774  0.32831  1.0000
  C   C159      1.0  0.65430  0.44484  0.25939  1.0000
  C   C160      1.0  0.63352  0.43695  0.25957  1.0000
  C   C161      1.0  0.56065  0.37845  0.32846  1.0000
  C   C162      1.0  0.56581  0.36891  0.26157  1.0000
  C   C163      1.0  0.55793  0.34813  0.26248  1.0000
  C   C164      1.0  0.54457  0.33607  0.33030  1.0000
  C   C165      1.0  0.53885  0.34556  0.39538  1.0000
  C   C166      1.0  0.54664  0.36640  0.39418  1.0000
  H   H89       1.0  0.66528  0.47214  0.44723  1.0000
  H   H90       1.0  0.62986  0.45863  0.44768  1.0000
  H   H91       1.0  0.66031  0.44014  0.21071  1.0000
  H   H92       1.0  0.62522  0.42710  0.21021  1.0000
  H   H93       1.0  0.57599  0.37713  0.21311  1.0000
  H   H94       1.0  0.56301  0.34209  0.21562  1.0000
  H   H95       1.0  0.54290  0.37282  0.44479  1.0000
  H   H96       1.0  0.52931  0.33742  0.44587  1.0000
  H   H97       1.0  0.53961  0.42518  0.44629  1.0000
  H   H98       1.0  0.52135  0.44251  0.44493  1.0000
  H   H99       1.0  0.55956  0.48097  0.24385  1.0000
  H   H100      1.0  0.57730  0.46319  0.24287  1.0000
  H   H101      1.0  0.60001  0.45727  0.34279  1.0000
  H   H102      1.0  0.59959  0.40285  0.32844  1.0000
  H   H103      1.0  0.54532  0.40282  0.34008  1.0000
  C   C167      1.0  0.57073  0.17173  0.33388  1.0000
  C   C168      1.0  0.56036  0.15069  0.34088  1.0000
  C   C169      1.0  0.57063  0.13977  0.34350  1.0000
  C   C170      1.0  0.59181  0.15056  0.34093  1.0000
  C   C171      1.0  0.60262  0.17162  0.33376  1.0000
  C   C172      1.0  0.59181  0.18190  0.33105  1.0000
  C   C173      1.0  0.55989  0.11840  0.34494  1.0000
  C   C174      1.0  0.54351  0.10737  0.28694  1.0000
  C   C175      1.0  0.53319  0.08635  0.28650  1.0000
  C   C176      1.0  0.53876  0.07548  0.34438  1.0000
  C   C177      1.0  0.55506  0.08651  0.40281  1.0000
  C   C178      1.0  0.56549  0.10755  0.40274  1.0000
  C   C179      1.0  0.56062  0.18285  0.32851  1.0000
  C   C180      1.0  0.54713  0.18147  0.39567  1.0000
  C   C181      1.0  0.53937  0.19454  0.39591  1.0000
  C   C182      1.0  0.54456  0.20914  0.32827  1.0000
  C   C183      1.0  0.55748  0.20992  0.25939  1.0000
  C   C184      1.0  0.56540  0.19705  0.25961  1.0000
  C   C185      1.0  0.62388  0.18265  0.32843  1.0000
  C   C186      1.0  0.63343  0.19737  0.26158  1.0000
  C   C187      1.0  0.65421  0.21025  0.26246  1.0000
  C   C188      1.0  0.66626  0.20895  0.33036  1.0000
  C   C189      1.0  0.65676  0.19375  0.39545  1.0000
  C   C190      1.0  0.63593  0.18069  0.39418  1.0000
  H   H104      1.0  0.53017  0.19358  0.44720  1.0000
  H   H105      1.0  0.54370  0.17168  0.44764  1.0000
  H   H106      1.0  0.56217  0.22063  0.21069  1.0000
  H   H107      1.0  0.57523  0.19859  0.21018  1.0000
  H   H108      1.0  0.62521  0.19933  0.21312  1.0000
  H   H109      1.0  0.66025  0.22138  0.21568  1.0000
  H   H110      1.0  0.62950  0.17053  0.44477  1.0000
  H   H111      1.0  0.66491  0.19235  0.44591  1.0000
  H   H112      1.0  0.57715  0.11489  0.44625  1.0000
  H   H113      1.0  0.55982  0.07931  0.44490  1.0000
  H   H114      1.0  0.52136  0.07905  0.24385  1.0000
  H   H115      1.0  0.53913  0.11457  0.24286  1.0000
  H   H116      1.0  0.54507  0.14321  0.34275  1.0000
  H   H117      1.0  0.59949  0.19720  0.32839  1.0000
  H   H118      1.0  0.59951  0.14296  0.34002  1.0000
  C   C191      1.0  0.94822  0.47466  0.34342  1.0000
  C   C192      1.0  0.95952  0.48073  0.42331  1.0000
  C   C193      1.0  0.98055  0.49132  0.42139  1.0000
  C   C194      1.0  0.99078  0.49618  0.33865  1.0000
  H   H119      1.0  0.95253  0.47714  0.48408  1.0000
  H   H120      1.0  0.98817  0.49532  0.48060  1.0000
  C   C195      1.0  0.52767  0.47403  0.34347  1.0000
  C   C196      1.0  0.52160  0.47926  0.42335  1.0000
  C   C197      1.0  0.51103  0.48972  0.42142  1.0000
  C   C198      1.0  0.50616  0.49508  0.33867  1.0000
  C   C199      1.0  0.48013  0.52199  0.40804  1.0000
  N   N11       1.0  0.49010  0.51170  0.40725  1.0000
  H   H121      1.0  0.47656  0.52552  0.46846  1.0000
  H   H122      1.0  0.52521  0.47588  0.48412  1.0000
  H   H123      1.0  0.50704  0.49335  0.48062  1.0000
  C   C200      1.0  0.52830  0.05410  0.34348  1.0000
  C   C201      1.0  0.52307  0.04280  0.42337  1.0000
  C   C202      1.0  0.51262  0.02177  0.42145  1.0000
  C   C203      1.0  0.50725  0.01154  0.33870  1.0000
  C   C204      1.0  0.48035  0.95860  0.40810  1.0000
  N   N12       1.0  0.49064  0.97886  0.40730  1.0000
  H   H124      1.0  0.47682  0.95150  0.46852  1.0000
  H   H125      1.0  0.52646  0.04980  0.48413  1.0000
  H   H126      1.0  0.50899  0.01415  0.48065  1.0000
  N   N13       1.0  0.28515  0.53122  0.40569  1.0000
  C   C205      1.0  0.30362  0.53334  0.41103  1.0000
  C   C206      1.0  0.25810  0.53268  0.33283  1.0000
  C   C207      1.0  0.24724  0.52943  0.41317  1.0000
  C   C208      1.0  0.23065  0.53229  0.41550  1.0000
  C   C209      1.0  0.22440  0.53821  0.33821  1.0000
  H   H127      1.0  0.25171  0.52583  0.47114  1.0000
  H   H128      1.0  0.22348  0.53055  0.47514  1.0000
  H   H129      1.0  0.30879  0.53230  0.47247  1.0000
  N   N14       1.0  0.47118  0.75443  0.40567  1.0000
  C   C210      1.0  0.46906  0.77078  0.41102  1.0000
  C   C211      1.0  0.46972  0.72593  0.33284  1.0000
  C   C212      1.0  0.47294  0.71830  0.41320  1.0000
  C   C213      1.0  0.47006  0.69884  0.41553  1.0000
  C   C214      1.0  0.46417  0.68669  0.33820  1.0000
  H   H130      1.0  0.47648  0.72634  0.47124  1.0000
  H   H131      1.0  0.47174  0.69339  0.47522  1.0000
  H   H132      1.0  0.47008  0.77698  0.47247  1.0000
  N   N15       1.0  0.24793  0.71721  0.40571  1.0000
  C   C215      1.0  0.23159  0.69873  0.41106  1.0000
  C   C216      1.0  0.27642  0.74426  0.33279  1.0000
  C   C217      1.0  0.28405  0.75511  0.41313  1.0000
  C   C218      1.0  0.30351  0.77170  0.41546  1.0000
  C   C219      1.0  0.31566  0.77797  0.33812  1.0000
  H   H133      1.0  0.27601  0.75061  0.47119  1.0000
  H   H134      1.0  0.30895  0.77883  0.47514  1.0000
  H   H135      1.0  0.22536  0.69357  0.47248  1.0000
  N   N16       1.0  0.71431  0.46382  0.41123  1.0000
  C   C220      1.0  0.69569  0.46144  0.41217  1.0000
  C   C221      1.0  0.74471  0.46896  0.34184  1.0000
  C   C222      1.0  0.75208  0.46505  0.42133  1.0000
  C   C223      1.0  0.76879  0.46236  0.41822  1.0000
  C   C224      1.0  0.77853  0.46359  0.33643  1.0000
  H   H136      1.0  0.74486  0.46310  0.48092  1.0000
  H   H137      1.0  0.77295  0.45822  0.47560  1.0000
  H   H138      1.0  0.68757  0.45655  0.46982  1.0000
  N   N17       1.0  0.53852  0.25095  0.41120  1.0000
  C   C225      1.0  0.54085  0.23467  0.41217  1.0000
  C   C226      1.0  0.53342  0.27623  0.34184  1.0000
  C   C227      1.0  0.53733  0.28750  0.42134  1.0000
  C   C228      1.0  0.54002  0.30691  0.41824  1.0000
  C   C229      1.0  0.53879  0.31542  0.33647  1.0000
  H   H139      1.0  0.53922  0.28220  0.48097  1.0000
  H   H140      1.0  0.54411  0.31519  0.47567  1.0000
  H   H141      1.0  0.54579  0.23148  0.46977  1.0000
  N   N18       1.0  0.75139  0.28802  0.41124  1.0000
  C   C230      1.0  0.76765  0.30663  0.41221  1.0000
  C   C231      1.0  0.72610  0.25763  0.34189  1.0000
  C   C232      1.0  0.71483  0.25027  0.42139  1.0000
  C   C233      1.0  0.69544  0.23356  0.41829  1.0000
  C   C234      1.0  0.68692  0.22381  0.33652  1.0000
  H   H142      1.0  0.72011  0.25749  0.48097  1.0000
  H   H143      1.0  0.68713  0.22940  0.47566  1.0000
  H   H144      1.0  0.77085  0.31476  0.46981  1.0000
