data_image0
_chemical_formula_structural       C3H2CHOC2HC6H3C3H2C2HC2H2CNOCHNOCHC2NO2C2ONCHC2OC4OC3H2C4HNO2C3H2C4HNO2C2HC5H3NO2HC2HC5H3NO2CHC6H3C6H3C6H3C6H3C5H3NO2C5H3NO2HC3H2C4HNO2CHCHC3H2C4HNO2C2HC2OC4HNO2C2H2NO2C4H2NO2C6H3C2HNO2C2HC4HNO2C3H2CNO
_chemical_formula_sum              "C144 H72 O36 N18"
_cell_length_a       46.5415
_cell_length_b       46.5415
_cell_length_c       14.7874
_cell_angle_alpha    90
_cell_angle_beta     90
_cell_angle_gamma    120

_space_group_name_H-M_alt    "P 1"
_space_group_IT_number       1

loop_
  _space_group_symop_operation_xyz
  'x, y, z'

loop_
  _atom_site_type_symbol
  _atom_site_label
  _atom_site_symmetry_multiplicity
  _atom_site_fract_x
  _atom_site_fract_y
  _atom_site_fract_z
  _atom_site_occupancy
  C   C1        1.0  0.02807  0.51555  0.34886  1.0000
  C   C2        1.0  0.04651  0.54283  0.29061  1.0000
  C   C3        1.0  0.08153  0.56005  0.29084  1.0000
  H   H1        1.0  0.03448  0.55051  0.24747  1.0000
  H   H2        1.0  0.09366  0.57924  0.24624  1.0000
  C   C4        1.0  0.21211  0.53634  0.28729  1.0000
  H   H3        1.0  0.19712  0.53187  0.23217  1.0000
  O   O1        1.0  0.22058  0.48847  0.18538  1.0000
  C   C5        1.0  0.20966  0.65603  0.33009  1.0000
  C   C6        1.0  0.23542  0.66924  0.26496  1.0000
  H   H4        1.0  0.23708  0.65402  0.21777  1.0000
  C   C7        1.0  0.18840  0.56751  0.35814  1.0000
  C   C8        1.0  0.20587  0.60233  0.34964  1.0000
  C   C9        1.0  0.18958  0.62083  0.33974  1.0000
  C   C10       1.0  0.15444  0.60348  0.34170  1.0000
  C   C11       1.0  0.13559  0.56825  0.34904  1.0000
  C   C12       1.0  0.15334  0.55076  0.35589  1.0000
  H   H5        1.0  0.14252  0.61687  0.33703  1.0000
  H   H6        1.0  0.14070  0.52540  0.35939  1.0000
  H   H7        1.0  0.23133  0.61458  0.35027  1.0000
  C   C13       1.0  0.09976  0.55079  0.34908  1.0000
  C   C14       1.0  0.08105  0.52342  0.40731  1.0000
  C   C15       1.0  0.04604  0.50620  0.40730  1.0000
  H   H8        1.0  0.09282  0.51595  0.45195  1.0000
  H   H9        1.0  0.03367  0.48652  0.45034  1.0000
  C   C16       1.0  0.20750  0.55135  0.36448  1.0000
  C   C17       1.0  0.22992  0.55921  0.43702  1.0000
  H   H10       1.0  0.22799  0.57163  0.49181  1.0000
  C   C18       1.0  0.23515  0.71131  0.39988  1.0000
  C   C19       1.0  0.20936  0.67790  0.39602  1.0000
  H   H11       1.0  0.23526  0.72588  0.45191  1.0000
  H   H12       1.0  0.19197  0.66898  0.44647  1.0000
  C   C20       1.0  0.23936  0.53079  0.28010  1.0000
  N   N1        1.0  0.24436  0.51719  0.19985  1.0000
  O   O2        1.0  0.24789  0.53491  0.13189  1.0000
  C   C21       1.0  0.26133  0.70234  0.26976  1.0000
  H   H13       1.0  0.28096  0.70980  0.22644  1.0000
  N   N2        1.0  0.28716  0.77364  0.19987  1.0000
  O   O3        1.0  0.28220  0.79741  0.18550  1.0000
  C   C22       1.0  0.29412  0.54188  0.33858  1.0000
  H   H14       1.0  0.29209  0.51294  0.45187  1.0000
  C   C23       1.0  0.26281  0.54037  0.35192  1.0000
  C   C24       1.0  0.25750  0.55424  0.43172  1.0000
  N   N3        1.0  0.28140  0.56606  0.50219  1.0000
  O   O4        1.0  0.29474  0.59694  0.51243  1.0000
  O   O5        1.0  0.26888  0.55208  0.57615  1.0000
  C   C25       1.0  0.26214  0.72386  0.33854  1.0000
  C   C26       1.0  0.29194  0.75517  0.35187  1.0000
  O   O6        1.0  0.29764  0.74905  0.57605  1.0000
  N   N4        1.0  0.29909  0.73655  0.50205  1.0000
  C   C27       1.0  0.31564  0.56261  0.26985  1.0000
  H   H15       1.0  0.30819  0.57480  0.22656  1.0000
  C   C28       1.0  0.30579  0.77863  0.28006  1.0000
  C   C29       1.0  0.33858  0.80589  0.28722  1.0000
  O   O7        1.0  0.30134  0.77013  0.13185  1.0000
  C   C30       1.0  0.30666  0.52741  0.39989  1.0000
  C   C31       1.0  0.34008  0.53505  0.39604  1.0000
  C   C32       1.0  0.34370  0.78804  0.43691  1.0000
  C   C33       1.0  0.31114  0.76045  0.43162  1.0000
  O   O8        1.0  0.31663  0.72321  0.51219  1.0000
  C   C34       1.0  0.50242  0.51611  0.34887  1.0000
  C   C35       1.0  0.47512  0.50726  0.29065  1.0000
  C   C36       1.0  0.45791  0.52507  0.29089  1.0000
  H   H16       1.0  0.46743  0.48755  0.24754  1.0000
  H   H17       1.0  0.43871  0.51800  0.24633  1.0000
  C   C37       1.0  0.51998  0.49800  0.34885  1.0000
  C   C38       1.0  0.55519  0.46183  0.34903  1.0000
  C   C39       1.0  0.55524  0.47988  0.27229  1.0000
  C   C40       1.0  0.53764  0.49751  0.27077  1.0000
  H   H18       1.0  0.56782  0.47982  0.21554  1.0000
  N   N5        1.0  0.53796  0.51520  0.19239  1.0000
  O   O9        1.0  0.56687  0.53741  0.17199  1.0000
  O   O10       1.0  0.52539  0.49615  0.12578  1.0000
  C   C41       1.0  0.50187  0.98989  0.34886  1.0000
  C   C42       1.0  0.51071  0.97145  0.29063  1.0000
  C   C43       1.0  0.49290  0.93642  0.29088  1.0000
  H   H19       1.0  0.53042  0.98347  0.24752  1.0000
  H   H20       1.0  0.49996  0.92429  0.24632  1.0000
  C   C44       1.0  0.51998  0.02557  0.34884  1.0000
  C   C45       1.0  0.55615  0.09695  0.34901  1.0000
  C   C46       1.0  0.53809  0.07894  0.27229  1.0000
  C   C47       1.0  0.52046  0.04371  0.27077  1.0000
  H   H21       1.0  0.53814  0.09158  0.21554  1.0000
  N   N6        1.0  0.50276  0.02635  0.19240  1.0000
  O   O11       1.0  0.48055  0.03305  0.17203  1.0000
  O   O12       1.0  0.52181  0.03282  0.12578  1.0000
  C   C48       1.0  0.36195  0.55725  0.33017  1.0000
  C   C49       1.0  0.34874  0.56981  0.26504  1.0000
  H   H22       1.0  0.36397  0.58670  0.21787  1.0000
  C   C50       1.0  0.46074  0.80829  0.33021  1.0000
  C   C51       1.0  0.44820  0.78255  0.26504  1.0000
  C   C52       1.0  0.45539  0.75664  0.26983  1.0000
  C   C53       1.0  0.48724  0.71220  0.28004  1.0000
  C   C54       1.0  0.48171  0.67941  0.28716  1.0000
  H   H23       1.0  0.48619  0.66890  0.23205  1.0000
  H   H24       1.0  0.43131  0.78089  0.21786  1.0000
  H   H25       1.0  0.44322  0.73701  0.22649  1.0000
  N   N7        1.0  0.50088  0.73084  0.19985  1.0000
  O   O13       1.0  0.48318  0.71666  0.13184  1.0000
  O   O14       1.0  0.52960  0.73580  0.18546  1.0000
  H   H26       1.0  0.34909  0.82089  0.23212  1.0000
  C   C55       1.0  0.65991  0.45723  0.32773  1.0000
  C   C56       1.0  0.67313  0.44441  0.26346  1.0000
  H   H27       1.0  0.65794  0.42742  0.21644  1.0000
  C   C57       1.0  0.56073  0.20625  0.32765  1.0000
  C   C58       1.0  0.57354  0.23231  0.26341  1.0000
  C   C59       1.0  0.56648  0.25830  0.26904  1.0000
  C   C60       1.0  0.53454  0.30270  0.28104  1.0000
  C   C61       1.0  0.54004  0.33545  0.28903  1.0000
  H   H28       1.0  0.53545  0.34606  0.23434  1.0000
  H   H29       1.0  0.59052  0.23410  0.21637  1.0000
  H   H30       1.0  0.57878  0.27809  0.22630  1.0000
  N   N8        1.0  0.52083  0.28424  0.20062  1.0000
  O   O15       1.0  0.53847  0.29858  0.13264  1.0000
  O   O16       1.0  0.49209  0.27930  0.18669  1.0000
  C   C62       1.0  0.68253  0.20820  0.28899  1.0000
  H   H31       1.0  0.67191  0.19300  0.23429  1.0000
  C   C63       1.0  0.45049  0.62450  0.35814  1.0000
  C   C64       1.0  0.41566  0.60716  0.34961  1.0000
  C   C65       1.0  0.39715  0.57236  0.33977  1.0000
  C   C66       1.0  0.41450  0.55457  0.34179  1.0000
  C   C67       1.0  0.44972  0.57094  0.34906  1.0000
  C   C68       1.0  0.46722  0.60619  0.35585  1.0000
  H   H32       1.0  0.40110  0.52926  0.33713  1.0000
  H   H33       1.0  0.49259  0.61890  0.35929  1.0000
  H   H34       1.0  0.40341  0.62037  0.35021  1.0000
  C   C69       1.0  0.39348  0.82956  0.35826  1.0000
  C   C70       1.0  0.41083  0.81209  0.34970  1.0000
  C   C71       1.0  0.44563  0.82838  0.33983  1.0000
  C   C72       1.0  0.46341  0.86351  0.34182  1.0000
  C   C73       1.0  0.44704  0.88237  0.34909  1.0000
  C   C74       1.0  0.41179  0.86462  0.35589  1.0000
  H   H35       1.0  0.48873  0.87544  0.33715  1.0000
  H   H36       1.0  0.39907  0.87726  0.35931  1.0000
  H   H37       1.0  0.39762  0.78663  0.35029  1.0000
  C   C75       1.0  0.57145  0.39017  0.36016  1.0000
  C   C76       1.0  0.60623  0.40742  0.34931  1.0000
  C   C77       1.0  0.62474  0.44216  0.33745  1.0000
  C   C78       1.0  0.60746  0.46002  0.33851  1.0000
  C   C79       1.0  0.57243  0.44357  0.34900  1.0000
  C   C80       1.0  0.55474  0.40853  0.35902  1.0000
  H   H38       1.0  0.62055  0.48527  0.33102  1.0000
  H   H39       1.0  0.52945  0.39619  0.36545  1.0000
  H   H40       1.0  0.61844  0.39417  0.34979  1.0000
  C   C81       1.0  0.62780  0.18487  0.36011  1.0000
  C   C82       1.0  0.61055  0.20240  0.34923  1.0000
  C   C83       1.0  0.57580  0.18615  0.33737  1.0000
  C   C84       1.0  0.55795  0.15102  0.33847  1.0000
  C   C85       1.0  0.57440  0.13244  0.34897  1.0000
  C   C86       1.0  0.60945  0.14981  0.35900  1.0000
  H   H41       1.0  0.53270  0.13886  0.33099  1.0000
  H   H42       1.0  0.62179  0.13686  0.36545  1.0000
  H   H43       1.0  0.62379  0.22786  0.34970  1.0000
  C   C87       1.0  0.46718  0.55257  0.34910  1.0000
  C   C88       1.0  0.49456  0.56124  0.40729  1.0000
  C   C89       1.0  0.51178  0.54345  0.40727  1.0000
  C   C90       1.0  0.52013  0.48021  0.42703  1.0000
  C   C91       1.0  0.53727  0.46214  0.42566  1.0000
  H   H44       1.0  0.53699  0.44939  0.48239  1.0000
  H   H45       1.0  0.50204  0.58049  0.45191  1.0000
  H   H46       1.0  0.53147  0.55077  0.45029  1.0000
  N   N9        1.0  0.50255  0.48019  0.50532  1.0000
  O   O17       1.0  0.52161  0.49252  0.57201  1.0000
  O   O18       1.0  0.48001  0.45142  0.52564  1.0000
  C   C92       1.0  0.46540  0.91819  0.34911  1.0000
  C   C93       1.0  0.45674  0.93691  0.40731  1.0000
  C   C94       1.0  0.47453  0.97192  0.40728  1.0000
  C   C95       1.0  0.53778  0.04351  0.42701  1.0000
  C   C96       1.0  0.55585  0.07872  0.42563  1.0000
  H   H47       1.0  0.56861  0.09120  0.48236  1.0000
  H   H48       1.0  0.43750  0.92514  0.45193  1.0000
  H   H49       1.0  0.46721  0.98429  0.45030  1.0000
  N   N10       1.0  0.53781  0.02595  0.50529  1.0000
  O   O19       1.0  0.52548  0.03267  0.57200  1.0000
  O   O20       1.0  0.56658  0.03218  0.52558  1.0000
  H   H50       1.0  0.34899  0.52656  0.44646  1.0000
  C   C97       1.0  0.47611  0.75584  0.33857  1.0000
  C   C98       1.0  0.49056  0.78283  0.39993  1.0000
  C   C99       1.0  0.48293  0.80861  0.39610  1.0000
  H   H51       1.0  0.50502  0.78272  0.45193  1.0000
  H   H52       1.0  0.49140  0.82600  0.44655  1.0000
  C   C100      1.0  0.47763  0.72604  0.35188  1.0000
  C   C101      1.0  0.46666  0.65977  0.36428  1.0000
  C   C102      1.0  0.45876  0.67427  0.43687  1.0000
  C   C103      1.0  0.46372  0.70683  0.43161  1.0000
  H   H53       1.0  0.44633  0.65992  0.49163  1.0000
  N   N11       1.0  0.45187  0.71888  0.50208  1.0000
  O   O21       1.0  0.42100  0.70134  0.51223  1.0000
  O   O22       1.0  0.46583  0.72032  0.57606  1.0000
  C   C104      1.0  0.35822  0.81047  0.36434  1.0000
  H   H54       1.0  0.35805  0.78997  0.49168  1.0000
  C   C105      1.0  0.68168  0.47945  0.39376  1.0000
  H   H55       1.0  0.67271  0.48805  0.44374  1.0000
  C   C106      1.0  0.54573  0.25894  0.33795  1.0000
  C   C107      1.0  0.53109  0.23173  0.39854  1.0000
  C   C108      1.0  0.53855  0.20585  0.39374  1.0000
  H   H56       1.0  0.51663  0.23174  0.45068  1.0000
  H   H57       1.0  0.52995  0.18828  0.44374  1.0000
  C   C109      1.0  0.54429  0.28873  0.35220  1.0000
  C   C110      1.0  0.55522  0.35492  0.36633  1.0000
  C   C111      1.0  0.56334  0.34032  0.43823  1.0000
  C   C112      1.0  0.55834  0.30777  0.43213  1.0000
  H   H58       1.0  0.57592  0.35461  0.49294  1.0000
  N   N12       1.0  0.57026  0.29553  0.50190  1.0000
  O   O23       1.0  0.60116  0.31303  0.51179  1.0000
  O   O24       1.0  0.55642  0.29393  0.57619  1.0000
  C   C113      1.0  0.66305  0.20390  0.36629  1.0000
  C   C114      1.0  0.67764  0.22661  0.43820  1.0000
  H   H59       1.0  0.66335  0.22490  0.49291  1.0000
  C   C115      1.0  0.70618  0.45149  0.26907  1.0000
  C   C116      1.0  0.71020  0.25417  0.43212  1.0000
  O   O25       1.0  0.70493  0.29172  0.51181  1.0000
  C   C117      1.0  0.99238  0.49799  0.34885  1.0000
  C   C118      1.0  0.92101  0.46278  0.34905  1.0000
  C   C119      1.0  0.93901  0.46272  0.27232  1.0000
  C   C120      1.0  0.97424  0.48031  0.27080  1.0000
  H   H60       1.0  0.92637  0.45013  0.21558  1.0000
  N   N13       1.0  0.99160  0.47997  0.19243  1.0000
  O   O26       1.0  0.98490  0.45106  0.17208  1.0000
  O   O27       1.0  0.98512  0.49254  0.12580  1.0000
  C   C121      1.0  0.78253  0.48344  0.28100  1.0000
  C   C122      1.0  0.80978  0.47795  0.28899  1.0000
  H   H61       1.0  0.82498  0.48252  0.23429  1.0000
  H   H62       1.0  0.71368  0.43918  0.22634  1.0000
  N   N14       1.0  0.77777  0.49713  0.20057  1.0000
  O   O28       1.0  0.77446  0.47948  0.13261  1.0000
  O   O29       1.0  0.80157  0.52588  0.18659  1.0000
  C   C123      1.0  0.81167  0.35807  0.32777  1.0000
  C   C124      1.0  0.78564  0.34486  0.26348  1.0000
  C   C125      1.0  0.75966  0.31180  0.26908  1.0000
  C   C126      1.0  0.71528  0.23546  0.28102  1.0000
  H   H63       1.0  0.78385  0.36005  0.21645  1.0000
  H   H64       1.0  0.73987  0.30431  0.22634  1.0000
  N   N15       1.0  0.73373  0.24022  0.20060  1.0000
  O   O30       1.0  0.71940  0.24352  0.13263  1.0000
  O   O31       1.0  0.73868  0.21642  0.18665  1.0000
  C   C127      1.0  0.83310  0.44654  0.36015  1.0000
  C   C128      1.0  0.81556  0.41176  0.34931  1.0000
  C   C129      1.0  0.83179  0.39325  0.33748  1.0000
  C   C130      1.0  0.86692  0.41052  0.33854  1.0000
  C   C131      1.0  0.88551  0.44555  0.34901  1.0000
  C   C132      1.0  0.86816  0.46324  0.35902  1.0000
  H   H65       1.0  0.87908  0.39742  0.33105  1.0000
  H   H66       1.0  0.88112  0.48854  0.36545  1.0000
  H   H67       1.0  0.79010  0.39956  0.34979  1.0000
  C   C133      1.0  0.97445  0.49785  0.42702  1.0000
  C   C134      1.0  0.93924  0.48072  0.42566  1.0000
  H   H68       1.0  0.92677  0.48101  0.48238  1.0000
  N   N16       1.0  0.99202  0.51546  0.50528  1.0000
  O   O32       1.0  0.98529  0.49641  0.57202  1.0000
  O   O33       1.0  0.98579  0.53800  0.52556  1.0000
  C   C135      1.0  0.72759  0.47226  0.33794  1.0000
  C   C136      1.0  0.71503  0.48691  0.39850  1.0000
  H   H69       1.0  0.72950  0.50139  0.45062  1.0000
  C   C137      1.0  0.75882  0.47371  0.35218  1.0000
  C   C138      1.0  0.81408  0.46278  0.36632  1.0000
  C   C139      1.0  0.79138  0.45467  0.43823  1.0000
  C   C140      1.0  0.76382  0.45968  0.43213  1.0000
  H   H70       1.0  0.79308  0.44211  0.49296  1.0000
  N   N17       1.0  0.73966  0.44777  0.50192  1.0000
  O   O34       1.0  0.72627  0.41688  0.51186  1.0000
  O   O35       1.0  0.75192  0.46163  0.57619  1.0000
  C   C141      1.0  0.75902  0.29040  0.33796  1.0000
  C   C142      1.0  0.78623  0.30296  0.39856  1.0000
  C   C143      1.0  0.81212  0.33631  0.39381  1.0000
  H   H71       1.0  0.78623  0.28849  0.45067  1.0000
  H   H72       1.0  0.82969  0.34527  0.44381  1.0000
  C   C144      1.0  0.72924  0.25917  0.35219  1.0000
  N   N18       1.0  0.72243  0.27833  0.50190  1.0000
  O   O36       1.0  0.72402  0.26607  0.57619  1.0000
