data_image0
_chemical_formula_structural       C4HNO2C3H2CHCN2CNC3HOCHC2H2C3HNO2C2NOC4HNO2C8H2N2O4C8H2N2O4C2H2C2H2C2H2C2H2C2H2C2H2C2H2C2H2C2H2C2H2CNCNCNCNCNCNCNCNCNCNCNCNCNCNCNC2H2C2H2C2H2C2H2C2H2C4HNO2C8H2N2O4C4HNO2C8H2N2O4C8H2N2O4C8H2N2O4
_chemical_formula_sum              "C126 H54 N36 O36"
_cell_length_a       46.4089
_cell_length_b       46.4088
_cell_length_c       14.8286
_cell_angle_alpha    90
_cell_angle_beta     90
_cell_angle_gamma    120

_space_group_name_H-M_alt    "P 1"
_space_group_IT_number       1

loop_
  _space_group_symop_operation_xyz
  'x, y, z'

loop_
  _atom_site_type_symbol
  _atom_site_label
  _atom_site_symmetry_multiplicity
  _atom_site_fract_x
  _atom_site_fract_y
  _atom_site_fract_z
  _atom_site_occupancy
  C   C1        1.0  0.02689  0.51508  0.33923  1.0000
  C   C2        1.0  0.04532  0.54832  0.30632  1.0000
  C   C3        1.0  0.08071  0.56567  0.30836  1.0000
  C   C4        1.0  0.09914  0.55100  0.34073  1.0000
  H   H1        1.0  0.09312  0.58937  0.28322  1.0000
  N   N1        1.0  0.02826  0.56349  0.26774  1.0000
  O   O1        1.0  0.03541  0.57015  0.18580  1.0000
  O   O2        1.0  0.03469  0.58981  0.30846  1.0000
  C   C5        1.0  0.13494  0.56888  0.34107  1.0000
  C   C6        1.0  0.08046  0.51777  0.37172  1.0000
  C   C7        1.0  0.04535  0.50039  0.37141  1.0000
  H   H2        1.0  0.09229  0.50586  0.39651  1.0000
  H   H3        1.0  0.03326  0.47666  0.39643  1.0000
  C   C8        1.0  0.21047  0.53735  0.28755  1.0000
  H   H4        1.0  0.19471  0.53081  0.23348  1.0000
  C   C9        1.0  0.18648  0.62016  0.33145  1.0000
  N   N2        1.0  0.15259  0.60287  0.33313  1.0000
  N   N3        1.0  0.15272  0.55269  0.34945  1.0000
  C   C10       1.0  0.18663  0.56949  0.35013  1.0000
  N   N4        1.0  0.20267  0.60292  0.34055  1.0000
  C   C11       1.0  0.20728  0.55524  0.36027  1.0000
  C   C12       1.0  0.20950  0.67548  0.39973  1.0000
  C   C13       1.0  0.20686  0.65514  0.32575  1.0000
  H   H5        1.0  0.19294  0.66548  0.45193  1.0000
  O   O3        1.0  0.21605  0.73311  0.49158  1.0000
  C   C14       1.0  0.23756  0.53164  0.28304  1.0000
  H   H6        1.0  0.24016  0.52036  0.22681  1.0000
  C   C15       1.0  0.23150  0.66890  0.25797  1.0000
  C   C16       1.0  0.25820  0.70171  0.26450  1.0000
  H   H7        1.0  0.23134  0.65440  0.20570  1.0000
  H   H8        1.0  0.27644  0.70983  0.21641  1.0000
  C   C17       1.0  0.23132  0.56644  0.43057  1.0000
  C   C18       1.0  0.25812  0.56007  0.42558  1.0000
  C   C19       1.0  0.26213  0.54326  0.35136  1.0000
  H   H9        1.0  0.27624  0.57017  0.47397  1.0000
  N   N5        1.0  0.22889  0.58503  0.50312  1.0000
  O   O4        1.0  0.25362  0.61395  0.50639  1.0000
  O   O5        1.0  0.22622  0.57092  0.57747  1.0000
  C   C20       1.0  0.26187  0.72176  0.34042  1.0000
  C   C21       1.0  0.23683  0.70841  0.40833  1.0000
  N   N6        1.0  0.24008  0.72795  0.48513  1.0000
  O   O6        1.0  0.24190  0.71437  0.55661  1.0000
  C   C22       1.0  0.91855  0.45794  0.33972  1.0000
  C   C23       1.0  0.93785  0.44409  0.30617  1.0000
  C   C24       1.0  0.97323  0.46318  0.30651  1.0000
  C   C25       1.0  0.99091  0.49617  0.33968  1.0000
  H   H10       1.0  0.98630  0.45275  0.28017  1.0000
  N   N7        1.0  0.92193  0.41140  0.27042  1.0000
  O   O7        1.0  0.92918  0.39269  0.31419  1.0000
  O   O8        1.0  0.92894  0.41098  0.18874  1.0000
  C   C26       1.0  0.55650  0.46351  0.33969  1.0000
  C   C27       1.0  0.57036  0.49667  0.30615  1.0000
  C   C28       1.0  0.55126  0.51295  0.30650  1.0000
  C   C29       1.0  0.51827  0.49764  0.33968  1.0000
  C   C30       1.0  0.49936  0.51470  0.33923  1.0000
  C   C31       1.0  0.46611  0.49988  0.30634  1.0000
  C   C32       1.0  0.44876  0.51792  0.30837  1.0000
  C   C33       1.0  0.46343  0.55102  0.34073  1.0000
  H   H11       1.0  0.42506  0.50663  0.28325  1.0000
  H   H12       1.0  0.56168  0.53644  0.28016  1.0000
  N   N8        1.0  0.45094  0.46765  0.26777  1.0000
  N   N9        1.0  0.60304  0.51344  0.27040  1.0000
  O   O9        1.0  0.44428  0.46814  0.18583  1.0000
  O   O10       1.0  0.62175  0.53939  0.31418  1.0000
  O   O11       1.0  0.42463  0.44777  0.30851  1.0000
  O   O12       1.0  0.60346  0.52087  0.18872  1.0000
  C   C34       1.0  0.55095  0.09592  0.33970  1.0000
  C   C35       1.0  0.51779  0.07661  0.30617  1.0000
  C   C36       1.0  0.50150  0.04123  0.30652  1.0000
  C   C37       1.0  0.51681  0.02355  0.33968  1.0000
  C   C38       1.0  0.49976  0.98758  0.33923  1.0000
  C   C39       1.0  0.51457  0.96915  0.30633  1.0000
  C   C40       1.0  0.49654  0.93376  0.30837  1.0000
  C   C41       1.0  0.46344  0.91533  0.34076  1.0000
  H   H13       1.0  0.50782  0.92135  0.28324  1.0000
  H   H14       1.0  0.47801  0.02816  0.28018  1.0000
  N   N10       1.0  0.54680  0.98621  0.26773  1.0000
  N   N11       1.0  0.50102  0.09252  0.27042  1.0000
  O   O13       1.0  0.54631  0.97906  0.18579  1.0000
  O   O14       1.0  0.47506  0.08528  0.31421  1.0000
  O   O15       1.0  0.56669  0.97978  0.30845  1.0000
  O   O16       1.0  0.49358  0.08551  0.18874  1.0000
  C   C42       1.0  0.34555  0.56547  0.25785  1.0000
  C   C43       1.0  0.31274  0.55936  0.26440  1.0000
  H   H15       1.0  0.36005  0.57981  0.20558  1.0000
  H   H16       1.0  0.30460  0.56946  0.21629  1.0000
  C   C44       1.0  0.48281  0.70882  0.28307  1.0000
  C   C45       1.0  0.47709  0.67601  0.28757  1.0000
  H   H17       1.0  0.49410  0.72271  0.22686  1.0000
  H   H18       1.0  0.48363  0.66680  0.23349  1.0000
  C   C46       1.0  0.44902  0.78301  0.25794  1.0000
  C   C47       1.0  0.45513  0.75631  0.26446  1.0000
  H   H19       1.0  0.43469  0.78319  0.20566  1.0000
  H   H20       1.0  0.44503  0.73808  0.21631  1.0000
  C   C48       1.0  0.30567  0.77688  0.28309  1.0000
  C   C49       1.0  0.33848  0.80397  0.28764  1.0000
  H   H21       1.0  0.29180  0.77427  0.22683  1.0000
  H   H22       1.0  0.34770  0.81971  0.23355  1.0000
  C   C50       1.0  0.78079  0.47896  0.27983  1.0000
  C   C51       1.0  0.80768  0.47294  0.28412  1.0000
  H   H23       1.0  0.77779  0.48953  0.22267  1.0000
  H   H24       1.0  0.82287  0.47853  0.22905  1.0000
  C   C52       1.0  0.67296  0.44574  0.25891  1.0000
  C   C53       1.0  0.70571  0.45167  0.26473  1.0000
  H   H25       1.0  0.65812  0.43098  0.20767  1.0000
  H   H26       1.0  0.71343  0.44097  0.21729  1.0000
  C   C54       1.0  0.53547  0.30470  0.27972  1.0000
  C   C55       1.0  0.54149  0.33762  0.28399  1.0000
  H   H27       1.0  0.52489  0.29112  0.22257  1.0000
  H   H28       1.0  0.53588  0.34720  0.22892  1.0000
  C   C56       1.0  0.56873  0.23012  0.25882  1.0000
  C   C57       1.0  0.56278  0.25693  0.26463  1.0000
  H   H29       1.0  0.58349  0.23003  0.20760  1.0000
  H   H30       1.0  0.57349  0.27536  0.21719  1.0000
  C   C58       1.0  0.70977  0.23366  0.27981  1.0000
  C   C59       1.0  0.67685  0.20677  0.28407  1.0000
  H   H31       1.0  0.72336  0.23666  0.22269  1.0000
  H   H32       1.0  0.66728  0.19158  0.22900  1.0000
  C   C60       1.0  0.78437  0.34150  0.25891  1.0000
  C   C61       1.0  0.75756  0.30874  0.26470  1.0000
  H   H33       1.0  0.78446  0.35634  0.20767  1.0000
  H   H34       1.0  0.73914  0.30101  0.21722  1.0000
  C   C62       1.0  0.39428  0.56922  0.33139  1.0000
  N   N12       1.0  0.41156  0.55261  0.33311  1.0000
  C   C63       1.0  0.44555  0.56895  0.34106  1.0000
  N   N13       1.0  0.46174  0.60292  0.34944  1.0000
  C   C64       1.0  0.44494  0.62003  0.35009  1.0000
  N   N14       1.0  0.41152  0.60265  0.34050  1.0000
  C   C65       1.0  0.44526  0.82798  0.33163  1.0000
  N   N15       1.0  0.46186  0.86187  0.33322  1.0000
  C   C66       1.0  0.44552  0.87952  0.34113  1.0000
  N   N16       1.0  0.41154  0.86174  0.34954  1.0000
  C   C67       1.0  0.39444  0.82783  0.35024  1.0000
  N   N17       1.0  0.41183  0.81179  0.34069  1.0000
  C   C68       1.0  0.83022  0.38962  0.33227  1.0000
  N   N18       1.0  0.86410  0.40634  0.33395  1.0000
  C   C69       1.0  0.88255  0.44034  0.34033  1.0000
  N   N19       1.0  0.86526  0.45709  0.34760  1.0000
  C   C70       1.0  0.83136  0.44098  0.34852  1.0000
  N   N20       1.0  0.81467  0.40752  0.34009  1.0000
  C   C71       1.0  0.62482  0.44349  0.33208  1.0000
  N   N21       1.0  0.60811  0.46067  0.33387  1.0000
  C   C72       1.0  0.57412  0.44512  0.34026  1.0000
  N   N22       1.0  0.55736  0.41107  0.34750  1.0000
  C   C73       1.0  0.57346  0.39328  0.34835  1.0000
  N   N23       1.0  0.60693  0.41005  0.33991  1.0000
  C   C74       1.0  0.57098  0.18425  0.33205  1.0000
  N   N24       1.0  0.55380  0.15037  0.33386  1.0000
  C   C75       1.0  0.56934  0.13191  0.34027  1.0000
  N   N25       1.0  0.60339  0.14920  0.34752  1.0000
  C   C76       1.0  0.62118  0.18309  0.34838  1.0000
  N   N26       1.0  0.60442  0.19979  0.33991  1.0000
  C   C77       1.0  0.97155  0.50938  0.37435  1.0000
  C   C78       1.0  0.93647  0.49095  0.37360  1.0000
  H   H35       1.0  0.98291  0.53269  0.40199  1.0000
  H   H36       1.0  0.92408  0.50203  0.40016  1.0000
  C   C79       1.0  0.50506  0.46506  0.37433  1.0000
  C   C80       1.0  0.52350  0.44842  0.37358  1.0000
  H   H37       1.0  0.48176  0.45312  0.40197  1.0000
  H   H38       1.0  0.51242  0.42494  0.40013  1.0000
  C   C81       1.0  0.49666  0.56558  0.37169  1.0000
  C   C82       1.0  0.51404  0.54785  0.37140  1.0000
  H   H39       1.0  0.50858  0.58933  0.39646  1.0000
  H   H40       1.0  0.53777  0.55949  0.39640  1.0000
  C   C83       1.0  0.54939  0.04292  0.37434  1.0000
  C   C84       1.0  0.56603  0.07800  0.37358  1.0000
  H   H41       1.0  0.56134  0.03155  0.40197  1.0000
  H   H42       1.0  0.58951  0.09039  0.40013  1.0000
  C   C85       1.0  0.44889  0.93400  0.37174  1.0000
  C   C86       1.0  0.46661  0.96911  0.37143  1.0000
  H   H43       1.0  0.42514  0.92217  0.39655  1.0000
  H   H44       1.0  0.45497  0.98120  0.39645  1.0000
  C   C87       1.0  0.29269  0.54298  0.34034  1.0000
  C   C88       1.0  0.30605  0.53131  0.40829  1.0000
  C   C89       1.0  0.33897  0.53690  0.39972  1.0000
  C   C90       1.0  0.35928  0.55461  0.32572  1.0000
  H   H45       1.0  0.34898  0.53036  0.45192  1.0000
  N   N27       1.0  0.28650  0.51503  0.48508  1.0000
  O   O17       1.0  0.30008  0.53043  0.55656  1.0000
  O   O18       1.0  0.28135  0.48584  0.49156  1.0000
  C   C91       1.0  0.45919  0.65492  0.36026  1.0000
  C   C92       1.0  0.44799  0.66777  0.43057  1.0000
  C   C93       1.0  0.45436  0.70093  0.42560  1.0000
  C   C94       1.0  0.47119  0.72176  0.35140  1.0000
  C   C95       1.0  0.47147  0.75261  0.34042  1.0000
  C   C96       1.0  0.48312  0.77762  0.40840  1.0000
  C   C97       1.0  0.47754  0.80495  0.39985  1.0000
  C   C98       1.0  0.45986  0.80760  0.32582  1.0000
  H   H46       1.0  0.48407  0.82149  0.45209  1.0000
  H   H47       1.0  0.44426  0.70896  0.47399  1.0000
  N   N28       1.0  0.49938  0.77433  0.48523  1.0000
  N   N29       1.0  0.42939  0.64673  0.50310  1.0000
  O   O19       1.0  0.48395  0.77249  0.55668  1.0000
  O   O20       1.0  0.40047  0.64255  0.50637  1.0000
  O   O21       1.0  0.52857  0.79836  0.49179  1.0000
  O   O22       1.0  0.44350  0.65817  0.57746  1.0000
  C   C99       1.0  0.35956  0.80719  0.36041  1.0000
  C   C100      1.0  0.34667  0.78314  0.43071  1.0000
  C   C101      1.0  0.31351  0.75634  0.42571  1.0000
  C   C102      1.0  0.29270  0.75232  0.35144  1.0000
  H   H48       1.0  0.30548  0.73823  0.47412  1.0000
  N   N30       1.0  0.36769  0.78558  0.50329  1.0000
  O   O23       1.0  0.37188  0.76086  0.50663  1.0000
  O   O24       1.0  0.35623  0.78826  0.57762  1.0000
  C   C103      1.0  0.81135  0.45593  0.35832  1.0000
  C   C104      1.0  0.78800  0.44592  0.43017  1.0000
  C   C105      1.0  0.76138  0.45257  0.42529  1.0000
  C   C106      1.0  0.75687  0.46849  0.34972  1.0000
  C   C107      1.0  0.72630  0.46881  0.33916  1.0000
  C   C108      1.0  0.71351  0.48138  0.40622  1.0000
  C   C109      1.0  0.68062  0.47595  0.39831  1.0000
  C   C110      1.0  0.65974  0.45748  0.32597  1.0000
  H   H49       1.0  0.67105  0.48326  0.44992  1.0000
  H   H50       1.0  0.74369  0.44324  0.47491  1.0000
  N   N31       1.0  0.73360  0.49847  0.48150  1.0000
  N   N32       1.0  0.79085  0.42809  0.50405  1.0000
  O   O25       1.0  0.72042  0.48396  0.55429  1.0000
  O   O26       1.0  0.76596  0.39936  0.51024  1.0000
  O   O27       1.0  0.73900  0.52779  0.48552  1.0000
  O   O28       1.0  0.79434  0.44317  0.57718  1.0000
  C   C111      1.0  0.55851  0.35831  0.35813  1.0000
  C   C112      1.0  0.56853  0.34498  0.42997  1.0000
  C   C113      1.0  0.56188  0.31171  0.42514  1.0000
  C   C114      1.0  0.54595  0.29126  0.34960  1.0000
  C   C115      1.0  0.54565  0.26038  0.33906  1.0000
  C   C116      1.0  0.53307  0.23502  0.40614  1.0000
  C   C117      1.0  0.53850  0.20756  0.39826  1.0000
  C   C118      1.0  0.55700  0.20521  0.32595  1.0000
  H   H51       1.0  0.53120  0.19069  0.44987  1.0000
  H   H52       1.0  0.57122  0.30335  0.47475  1.0000
  N   N33       1.0  0.51597  0.23803  0.48138  1.0000
  N   N34       1.0  0.58637  0.36566  0.50383  1.0000
  O   O29       1.0  0.53047  0.23937  0.55419  1.0000
  O   O30       1.0  0.61510  0.36950  0.51001  1.0000
  O   O31       1.0  0.48665  0.21410  0.48538  1.0000
  O   O32       1.0  0.57129  0.35407  0.57697  1.0000
  C   C119      1.0  0.65614  0.20310  0.35818  1.0000
  C   C120      1.0  0.66948  0.22646  0.43001  1.0000
  C   C121      1.0  0.70275  0.25308  0.42520  1.0000
  C   C122      1.0  0.72320  0.25759  0.34968  1.0000
  C   C123      1.0  0.75409  0.28815  0.33916  1.0000
  C   C124      1.0  0.77943  0.30095  0.40628  1.0000
  C   C125      1.0  0.80689  0.33384  0.39841  1.0000
  C   C126      1.0  0.80928  0.35470  0.32605  1.0000
  H   H53       1.0  0.82374  0.34341  0.45006  1.0000
  H   H54       1.0  0.71110  0.27077  0.47481  1.0000
  N   N35       1.0  0.77641  0.28085  0.48157  1.0000
  N   N36       1.0  0.64879  0.22362  0.50386  1.0000
  O   O33       1.0  0.77505  0.29402  0.55434  1.0000
  O   O34       1.0  0.64495  0.24851  0.51000  1.0000
  O   O35       1.0  0.80034  0.27546  0.48565  1.0000
  O   O36       1.0  0.66037  0.22014  0.57701  1.0000
