data_image0
_chemical_formula_structural       C2HC6H3NC2HC6H3NC2HC6H3NC6H3C3H3C6H3C3H3C2NC2NHCH3NC2NC2NHCH3NC2NC2NHCH3N
_chemical_formula_sum              "C57 H36 N12"
_cell_length_a       29.2461
_cell_length_b       29.246
_cell_length_c       15.0136
_cell_angle_alpha    90
_cell_angle_beta     90
_cell_angle_gamma    120

_space_group_name_H-M_alt    "P 1"
_space_group_IT_number       1

loop_
  _space_group_symop_operation_xyz
  'x, y, z'

loop_
  _atom_site_type_symbol
  _atom_site_label
  _atom_site_symmetry_multiplicity
  _atom_site_fract_x
  _atom_site_fract_y
  _atom_site_fract_z
  _atom_site_occupancy
  C   C1        1.0  0.46951  0.52409  0.24766  1.0000
  C   C2        1.0  0.43986  0.55006  0.24857  1.0000
  H   H1        1.0  0.42925  0.55971  0.18951  1.0000
  C   C3        1.0  0.51259  0.48444  0.33233  1.0000
  C   C4        1.0  0.57145  0.43253  0.33903  1.0000
  C   C5        1.0  0.55948  0.44662  0.25605  1.0000
  C   C6        1.0  0.52942  0.47221  0.25144  1.0000
  C   C7        1.0  0.51586  0.48589  0.16940  1.0000
  C   C8        1.0  0.48601  0.51151  0.16751  1.0000
  H   H2        1.0  0.52756  0.47731  0.11049  1.0000
  H   H3        1.0  0.47665  0.52110  0.10727  1.0000
  H   H4        1.0  0.57226  0.43762  0.19865  1.0000
  N   N1        1.0  0.60073  0.40959  0.34106  1.0000
  C   C9        1.0  0.47476  0.94520  0.24766  1.0000
  C   C10       1.0  0.44878  0.88957  0.24857  1.0000
  H   H5        1.0  0.43911  0.86931  0.18951  1.0000
  C   C11       1.0  0.51443  0.02791  0.33234  1.0000
  C   C12       1.0  0.56637  0.13869  0.33905  1.0000
  C   C13       1.0  0.55224  0.11263  0.25607  1.0000
  C   C14       1.0  0.52664  0.05698  0.25145  1.0000
  C   C15       1.0  0.51293  0.02974  0.16941  1.0000
  C   C16       1.0  0.48732  0.97428  0.16752  1.0000
  H   H6        1.0  0.52150  0.05003  0.11051  1.0000
  H   H7        1.0  0.47770  0.95533  0.10728  1.0000
  H   H8        1.0  0.56122  0.13442  0.19868  1.0000
  N   N2        1.0  0.58928  0.19091  0.34107  1.0000
  C   C17       1.0  0.05367  0.52935  0.24770  1.0000
  C   C18       1.0  0.10930  0.55899  0.24862  1.0000
  H   H9        1.0  0.12957  0.56959  0.18957  1.0000
  C   C19       1.0  0.97094  0.48630  0.33235  1.0000
  C   C20       1.0  0.86017  0.42743  0.33904  1.0000
  C   C21       1.0  0.88623  0.43938  0.25606  1.0000
  C   C22       1.0  0.94188  0.46944  0.25146  1.0000
  C   C23       1.0  0.96913  0.48298  0.16943  1.0000
  C   C24       1.0  0.02460  0.51284  0.16755  1.0000
  H   H10       1.0  0.94885  0.47126  0.11052  1.0000
  H   H11       1.0  0.04355  0.52217  0.10732  1.0000
  H   H12       1.0  0.86445  0.42658  0.19866  1.0000
  N   N3        1.0  0.80795  0.39814  0.34104  1.0000
  C   C25       1.0  0.36831  0.64643  0.29471  1.0000
  C   C26       1.0  0.38738  0.70138  0.29441  1.0000
  C   C27       1.0  0.35244  0.72165  0.29471  1.0000
  C   C28       1.0  0.29748  0.68577  0.29445  1.0000
  C   C29       1.0  0.27722  0.63056  0.29479  1.0000
  C   C30       1.0  0.31310  0.61149  0.29451  1.0000
  H   H13       1.0  0.27184  0.70007  0.29212  1.0000
  H   H14       1.0  0.29880  0.57155  0.29212  1.0000
  H   H15       1.0  0.42732  0.72703  0.29205  1.0000
  C   C31       1.0  0.37098  0.77537  0.28893  1.0000
  C   C32       1.0  0.22349  0.59538  0.28900  1.0000
  C   C33       1.0  0.40348  0.62788  0.28892  1.0000
  H   H16       1.0  0.43610  0.64802  0.25257  1.0000
  H   H17       1.0  0.21102  0.56275  0.25268  1.0000
  H   H18       1.0  0.35083  0.78786  0.25261  1.0000
  C   C34       1.0  0.63018  0.35241  0.38409  1.0000
  C   C35       1.0  0.61125  0.29749  0.38445  1.0000
  C   C36       1.0  0.64645  0.27755  0.38411  1.0000
  C   C37       1.0  0.70136  0.31354  0.38446  1.0000
  C   C38       1.0  0.72131  0.36867  0.38406  1.0000
  C   C39       1.0  0.68532  0.38760  0.38445  1.0000
  H   H19       1.0  0.72716  0.29941  0.38667  1.0000
  H   H20       1.0  0.69945  0.42752  0.38666  1.0000
  H   H21       1.0  0.57134  0.27170  0.38669  1.0000
  C   C40       1.0  0.62800  0.22393  0.38963  1.0000
  C   C41       1.0  0.77493  0.40385  0.38958  1.0000
  C   C42       1.0  0.59502  0.37087  0.38960  1.0000
  H   H22       1.0  0.56446  0.35305  0.43108  1.0000
  H   H23       1.0  0.78765  0.43440  0.43107  1.0000
  H   H24       1.0  0.64583  0.21121  0.43111  1.0000
  C   C43       1.0  0.42430  0.56272  0.32985  1.0000
  C   C44       1.0  0.43791  0.54738  0.41069  1.0000
  N   N4        1.0  0.46654  0.52243  0.40704  1.0000
  C   C45       1.0  0.48287  0.51037  0.33039  1.0000
  C   C46       1.0  0.55400  0.44616  0.41707  1.0000
  N   N5        1.0  0.52566  0.47116  0.41117  1.0000
  H   H25       1.0  0.56288  0.43798  0.47874  1.0000
  C   C47       1.0  0.42398  0.55728  0.50061  1.0000
  H   H26       1.0  0.40137  0.57769  0.49891  1.0000
  H   H27       1.0  0.46003  0.58146  0.53865  1.0000
  H   H28       1.0  0.40048  0.51975  0.53513  1.0000
  N   N6        1.0  0.39513  0.58584  0.33011  1.0000
  C   C48       1.0  0.43615  0.86136  0.32985  1.0000
  C   C49       1.0  0.45152  0.89030  0.41069  1.0000
  N   N7        1.0  0.47646  0.94388  0.40704  1.0000
  C   C50       1.0  0.48850  0.97227  0.33039  1.0000
  C   C51       1.0  0.55274  0.10761  0.41709  1.0000
  N   N8        1.0  0.52774  0.05427  0.41118  1.0000
  H   H29       1.0  0.56093  0.12467  0.47876  1.0000
  C   C52       1.0  0.44163  0.86647  0.50061  1.0000
  H   H30       1.0  0.42121  0.82344  0.49889  1.0000
  H   H31       1.0  0.41745  0.87834  0.53866  1.0000
  H   H32       1.0  0.47916  0.88049  0.53511  1.0000
  N   N9        1.0  0.41303  0.80906  0.33010  1.0000
  C   C53       1.0  0.13751  0.57454  0.32991  1.0000
  C   C54       1.0  0.10856  0.56098  0.41073  1.0000
  N   N10       1.0  0.05498  0.53236  0.40708  1.0000
  C   C55       1.0  0.02659  0.51601  0.33042  1.0000
  C   C56       1.0  0.89124  0.44489  0.41708  1.0000
  N   N11       1.0  0.94458  0.47323  0.41119  1.0000
  H   H33       1.0  0.87417  0.43602  0.47875  1.0000
  C   C57       1.0  0.13237  0.57492  0.50066  1.0000
  H   H34       1.0  0.17540  0.59751  0.49896  1.0000
  H   H35       1.0  0.12049  0.53887  0.53872  1.0000
  H   H36       1.0  0.11837  0.59845  0.53515  1.0000
  N   N12       1.0  0.18981  0.60373  0.33017  1.0000
