data_image0
_chemical_formula_structural       C3H2C4NH3C4NH3C4NH3N6C21H13C24H15C24H15C24H15N6C4NH3C4NH3C4NH3
_chemical_formula_sum              "C120 H78 N18"
_cell_length_a       45.6409
_cell_length_b       45.6409
_cell_length_c       14.9593
_cell_angle_alpha    90
_cell_angle_beta     90
_cell_angle_gamma    120

_space_group_name_H-M_alt    "P 1"
_space_group_IT_number       1

loop_
  _space_group_symop_operation_xyz
  'x, y, z'

loop_
  _atom_site_type_symbol
  _atom_site_label
  _atom_site_symmetry_multiplicity
  _atom_site_fract_x
  _atom_site_fract_y
  _atom_site_fract_z
  _atom_site_occupancy
  C   C1        1.0  0.01268  0.03264  0.34649  1.0000
  C   C2        1.0  0.03051  0.01468  0.34526  1.0000
  C   C3        1.0  0.01155  0.97892  0.34422  1.0000
  H   H1        1.0  0.02605  0.05855  0.34536  1.0000
  H   H2        1.0  0.02412  0.96558  0.34415  1.0000
  C   C4        1.0  0.17510  0.08646  0.32105  1.0000
  C   C5        1.0  0.19231  0.09394  0.23832  1.0000
  C   C6        1.0  0.22807  0.11306  0.23435  1.0000
  C   C7        1.0  0.24613  0.12335  0.31669  1.0000
  N   N1        1.0  0.24322  0.12190  0.15274  1.0000
  H   H3        1.0  0.22991  0.11541  0.09799  1.0000
  H   H4        1.0  0.26721  0.13792  0.14659  1.0000
  H   H5        1.0  0.17871  0.08683  0.18012  1.0000
  C   C8        1.0  0.90521  0.08866  0.31927  1.0000
  C   C9        1.0  0.89814  0.09868  0.23638  1.0000
  C   C10       1.0  0.87908  0.11538  0.23194  1.0000
  C   C11       1.0  0.86845  0.12297  0.31400  1.0000
  N   N2        1.0  0.87061  0.12191  0.15012  1.0000
  H   H6        1.0  0.87755  0.11549  0.09545  1.0000
  H   H7        1.0  0.85489  0.13022  0.14339  1.0000
  H   H8        1.0  0.90544  0.09226  0.17837  1.0000
  C   C12       1.0  0.90150  0.81647  0.31753  1.0000
  C   C13       1.0  0.89442  0.79929  0.23481  1.0000
  C   C14       1.0  0.87563  0.76352  0.23076  1.0000
  C   C15       1.0  0.86516  0.74544  0.31301  1.0000
  N   N3        1.0  0.86743  0.74832  0.14915  1.0000
  H   H9        1.0  0.87406  0.76160  0.09434  1.0000
  H   H10       1.0  0.85177  0.72425  0.14288  1.0000
  H   H11       1.0  0.90175  0.81290  0.17663  1.0000
  N   N4        1.0  0.55380  0.14703  0.28210  1.0000
  N   N5        1.0  0.58135  0.14509  0.27955  1.0000
  N   N6        1.0  0.84449  0.40721  0.29157  1.0000
  N   N7        1.0  0.84600  0.43651  0.29034  1.0000
  N   N8        1.0  0.58374  0.43819  0.27263  1.0000
  N   N9        1.0  0.55446  0.41037  0.27117  1.0000
  C   C16       1.0  0.97688  0.01577  0.34680  1.0000
  C   C17       1.0  0.97575  0.96104  0.34503  1.0000
  C   C18       1.0  0.95887  0.97995  0.34710  1.0000
  C   C19       1.0  0.06662  0.03215  0.34091  1.0000
  C   C20       1.0  0.08669  0.05916  0.39969  1.0000
  C   C21       1.0  0.12227  0.07652  0.39416  1.0000
  C   C22       1.0  0.13909  0.06807  0.32831  1.0000
  C   C23       1.0  0.11893  0.04089  0.26997  1.0000
  C   C24       1.0  0.08342  0.02319  0.27639  1.0000
  C   C25       1.0  0.95942  0.03441  0.34166  1.0000
  C   C26       1.0  0.96853  0.06013  0.27686  1.0000
  C   C27       1.0  0.95083  0.07791  0.26951  1.0000
  C   C28       1.0  0.92349  0.07094  0.32718  1.0000
  C   C29       1.0  0.91484  0.04568  0.39321  1.0000
  C   C30       1.0  0.93220  0.02746  0.39963  1.0000
  C   C31       1.0  0.95728  0.92495  0.33921  1.0000
  C   C32       1.0  0.92989  0.90509  0.39715  1.0000
  C   C33       1.0  0.91193  0.86951  0.39086  1.0000
  C   C34       1.0  0.92013  0.85249  0.32498  1.0000
  C   C35       1.0  0.94760  0.87244  0.26724  1.0000
  C   C36       1.0  0.96588  0.90792  0.27443  1.0000
  H   H12       1.0  0.95854  0.09642  0.22196  1.0000
  H   H13       1.0  0.98777  0.06568  0.23277  1.0000
  H   H14       1.0  0.89514  0.03963  0.43607  1.0000
  H   H15       1.0  0.92497  0.00925  0.44791  1.0000
  H   H16       1.0  0.92308  0.91639  0.44556  1.0000
  H   H17       1.0  0.89220  0.85614  0.43385  1.0000
  H   H18       1.0  0.98528  0.92128  0.23047  1.0000
  H   H19       1.0  0.95506  0.86134  0.21992  1.0000
  H   H20       1.0  0.06989  0.00407  0.23184  1.0000
  H   H21       1.0  0.12991  0.03333  0.22251  1.0000
  H   H22       1.0  0.13578  0.09609  0.43750  1.0000
  H   H23       1.0  0.07553  0.06622  0.44792  1.0000
  H   H24       1.0  0.93298  0.96741  0.34381  1.0000
  C   C37       1.0  0.44370  0.25202  0.33363  1.0000
  C   C38       1.0  0.40807  0.23268  0.33718  1.0000
  C   C39       1.0  0.39088  0.19678  0.34049  1.0000
  C   C40       1.0  0.41072  0.18072  0.34121  1.0000
  C   C41       1.0  0.44647  0.19936  0.33698  1.0000
  C   C42       1.0  0.46235  0.23502  0.33474  1.0000
  C   C43       1.0  0.35458  0.17742  0.33859  1.0000
  C   C44       1.0  0.33451  0.18779  0.38646  1.0000
  C   C45       1.0  0.29894  0.16983  0.38023  1.0000
  C   C46       1.0  0.28204  0.14092  0.32508  1.0000
  C   C47       1.0  0.30184  0.12955  0.28048  1.0000
  C   C48       1.0  0.33736  0.14766  0.28624  1.0000
  C   C49       1.0  0.46154  0.28792  0.32823  1.0000
  C   C50       1.0  0.46219  0.30776  0.40146  1.0000
  C   C51       1.0  0.48632  0.34254  0.40521  1.0000
  C   C52       1.0  0.51037  0.35858  0.33593  1.0000
  C   C53       1.0  0.50775  0.33893  0.25979  1.0000
  C   C54       1.0  0.48399  0.30418  0.25633  1.0000
  C   C55       1.0  0.46681  0.18360  0.33461  1.0000
  C   C56       1.0  0.49470  0.19574  0.27541  1.0000
  C   C57       1.0  0.51823  0.18456  0.28161  1.0000
  C   C58       1.0  0.51457  0.16045  0.34654  1.0000
  C   C59       1.0  0.48519  0.14607  0.40057  1.0000
  C   C60       1.0  0.46180  0.15766  0.39522  1.0000
  H   H25       1.0  0.48720  0.35565  0.46155  1.0000
  H   H26       1.0  0.44711  0.29655  0.45597  1.0000
  H   H27       1.0  0.52506  0.34895  0.20906  1.0000
  H   H28       1.0  0.48474  0.29036  0.20333  1.0000
  H   H29       1.0  0.49910  0.21414  0.22953  1.0000
  H   H30       1.0  0.53912  0.19569  0.24114  1.0000
  H   H31       1.0  0.44221  0.14844  0.43990  1.0000
  H   H32       1.0  0.48150  0.12827  0.44760  1.0000
  H   H33       1.0  0.35056  0.13928  0.24916  1.0000
  H   H34       1.0  0.29054  0.10818  0.24188  1.0000
  H   H35       1.0  0.28552  0.17867  0.41449  1.0000
  H   H36       1.0  0.34563  0.20872  0.42667  1.0000
  H   H37       1.0  0.39458  0.24504  0.33350  1.0000
  H   H38       1.0  0.48826  0.24912  0.33488  1.0000
  H   H39       1.0  0.39897  0.15488  0.34350  1.0000
  C   C61       1.0  0.73980  0.19198  0.33503  1.0000
  C   C62       1.0  0.75910  0.17564  0.33713  1.0000
  C   C63       1.0  0.79501  0.19429  0.33970  1.0000
  C   C64       1.0  0.81112  0.23019  0.34132  1.0000
  C   C65       1.0  0.79251  0.24734  0.33857  1.0000
  C   C66       1.0  0.75684  0.22762  0.33684  1.0000
  C   C67       1.0  0.81429  0.17726  0.33681  1.0000
  C   C68       1.0  0.80388  0.14669  0.38406  1.0000
  C   C69       1.0  0.82182  0.12908  0.37725  1.0000
  C   C70       1.0  0.85077  0.14121  0.32219  1.0000
  C   C71       1.0  0.86214  0.17247  0.27810  1.0000
  C   C72       1.0  0.84403  0.18989  0.28433  1.0000
  C   C73       1.0  0.70388  0.17400  0.33100  1.0000
  C   C74       1.0  0.68448  0.15523  0.40528  1.0000
  C   C75       1.0  0.64981  0.14492  0.41064  1.0000
  C   C76       1.0  0.63344  0.15275  0.34187  1.0000
  C   C77       1.0  0.65265  0.16937  0.26477  1.0000
  C   C78       1.0  0.68731  0.18006  0.25968  1.0000
  C   C79       1.0  0.80826  0.28344  0.33756  1.0000
  C   C80       1.0  0.79622  0.29947  0.27906  1.0000
  C   C81       1.0  0.80720  0.33409  0.28691  1.0000
  C   C82       1.0  0.83093  0.35413  0.35311  1.0000
  C   C83       1.0  0.84518  0.33887  0.40662  1.0000
  C   C84       1.0  0.83384  0.30398  0.39943  1.0000
  H   H40       1.0  0.63701  0.13300  0.46762  1.0000
  H   H41       1.0  0.69599  0.15153  0.45939  1.0000
  H   H42       1.0  0.64241  0.17661  0.21449  1.0000
  H   H43       1.0  0.70086  0.19446  0.20616  1.0000
  H   H44       1.0  0.77798  0.28570  0.23257  1.0000
  H   H45       1.0  0.79608  0.34402  0.24705  1.0000
  H   H46       1.0  0.84295  0.29336  0.44367  1.0000
  H   H47       1.0  0.86270  0.35271  0.45455  1.0000
  H   H48       1.0  0.85247  0.21159  0.24783  1.0000
  H   H49       1.0  0.88357  0.18267  0.23969  1.0000
  H   H50       1.0  0.81298  0.10676  0.41125  1.0000
  H   H51       1.0  0.78299  0.13682  0.42440  1.0000
  H   H52       1.0  0.74667  0.14979  0.33296  1.0000
  H   H53       1.0  0.74278  0.23947  0.33806  1.0000
  H   H54       1.0  0.83697  0.24424  0.34337  1.0000
  C   C85       1.0  0.79783  0.54727  0.34201  1.0000
  C   C86       1.0  0.81473  0.58292  0.34504  1.0000
  C   C87       1.0  0.79676  0.60083  0.33993  1.0000
  C   C88       1.0  0.76090  0.58172  0.33415  1.0000
  C   C89       1.0  0.74316  0.54592  0.33198  1.0000
  C   C90       1.0  0.76222  0.52931  0.33687  1.0000
  C   C91       1.0  0.81442  0.63712  0.33619  1.0000
  C   C92       1.0  0.84437  0.65519  0.28496  1.0000
  C   C93       1.0  0.86125  0.69067  0.27850  1.0000
  C   C94       1.0  0.84843  0.70956  0.32130  1.0000
  C   C95       1.0  0.81919  0.69183  0.37491  1.0000
  C   C96       1.0  0.80240  0.65628  0.38169  1.0000
  C   C97       1.0  0.81532  0.52883  0.34145  1.0000
  C   C98       1.0  0.83271  0.52741  0.41790  1.0000
  C   C99       1.0  0.84322  0.50320  0.42387  1.0000
  C   C100      1.0  0.83686  0.47987  0.35369  1.0000
  C   C101      1.0  0.82154  0.48319  0.27487  1.0000
  C   C102      1.0  0.81069  0.50702  0.26912  1.0000
  C   C103      1.0  0.70710  0.52616  0.32577  1.0000
  C   C104      1.0  0.69176  0.49778  0.26812  1.0000
  C   C105      1.0  0.65700  0.47429  0.27340  1.0000
  C   C106      1.0  0.63617  0.47845  0.33607  1.0000
  C   C107      1.0  0.65081  0.50834  0.38815  1.0000
  C   C108      1.0  0.68581  0.53174  0.38355  1.0000
  H   H55       1.0  0.85429  0.50188  0.48200  1.0000
  H   H56       1.0  0.83561  0.54221  0.47234  1.0000
  H   H57       1.0  0.81535  0.46636  0.22332  1.0000
  H   H58       1.0  0.79743  0.50683  0.21365  1.0000
  H   H59       1.0  0.70612  0.49290  0.22461  1.0000
  H   H60       1.0  0.64752  0.45298  0.23461  1.0000
  H   H61       1.0  0.69591  0.55162  0.42736  1.0000
  H   H62       1.0  0.63641  0.51235  0.43356  1.0000
  H   H63       1.0  0.78124  0.64450  0.42092  1.0000
  H   H64       1.0  0.80936  0.70463  0.40787  1.0000
  H   H65       1.0  0.88289  0.70261  0.24106  1.0000
  H   H66       1.0  0.85389  0.64263  0.24959  1.0000
  H   H67       1.0  0.84058  0.59590  0.34952  1.0000
  H   H68       1.0  0.74990  0.50338  0.33773  1.0000
  H   H69       1.0  0.74742  0.59400  0.32742  1.0000
  N   N10       1.0  0.22768  0.11546  0.39338  1.0000
  N   N11       1.0  0.19462  0.09846  0.39551  1.0000
  N   N12       1.0  0.87600  0.11218  0.39084  1.0000
  N   N13       1.0  0.89293  0.09606  0.39340  1.0000
  N   N14       1.0  0.87256  0.76383  0.38970  1.0000
  N   N15       1.0  0.88932  0.79691  0.39188  1.0000
  C   C109      1.0  0.60045  0.14863  0.35275  1.0000
  C   C110      1.0  0.58870  0.15417  0.43496  1.0000
  C   C111      1.0  0.55936  0.15733  0.43891  1.0000
  C   C112      1.0  0.54122  0.15309  0.35787  1.0000
  N   N16       1.0  0.55161  0.16662  0.51795  1.0000
  H   H70       1.0  0.56538  0.17037  0.57108  1.0000
  H   H71       1.0  0.53381  0.17220  0.52286  1.0000
  H   H72       1.0  0.60331  0.15929  0.49103  1.0000
  C   C113      1.0  0.84140  0.45122  0.36385  1.0000
  C   C114      1.0  0.83529  0.43321  0.44508  1.0000
  C   C115      1.0  0.83265  0.40091  0.44761  1.0000
  C   C116      1.0  0.83792  0.38794  0.36626  1.0000
  N   N17       1.0  0.82287  0.38317  0.52554  1.0000
  H   H73       1.0  0.81846  0.39256  0.57892  1.0000
  H   H74       1.0  0.81777  0.35990  0.52938  1.0000
  H   H75       1.0  0.82942  0.44201  0.50124  1.0000
  C   C117      1.0  0.53902  0.39182  0.34527  1.0000
  C   C118      1.0  0.55627  0.40448  0.42719  1.0000
  C   C119      1.0  0.58857  0.43412  0.43000  1.0000
  C   C120      1.0  0.60226  0.45169  0.34815  1.0000
  N   N18       1.0  0.60561  0.44273  0.50908  1.0000
  H   H76       1.0  0.59568  0.42948  0.56302  1.0000
  H   H77       1.0  0.62880  0.46099  0.51370  1.0000
  H   H78       1.0  0.54695  0.39029  0.48398  1.0000
