data_image0
_chemical_formula_structural       C8H8C3HC3NHCO2HCHC3HC3NHCO2HCHC3NC3NC5NC5NC20H18N4C2NC2H2CO2HCHC2NC2H2CO2HCH
_chemical_formula_sum              "C72 H42 N12 O8"
_cell_length_a       29.7886
_cell_length_b       29.7865
_cell_length_c       14.9561
_cell_angle_alpha    90
_cell_angle_beta     90
_cell_angle_gamma    90.0262

_space_group_name_H-M_alt    "P 1"
_space_group_IT_number       1

loop_
  _space_group_symop_operation_xyz
  'x, y, z'

loop_
  _atom_site_type_symbol
  _atom_site_label
  _atom_site_symmetry_multiplicity
  _atom_site_fract_x
  _atom_site_fract_y
  _atom_site_fract_z
  _atom_site_occupancy
  C   C1        1.0  0.19153  0.99876  0.27060  1.0000
  C   C2        1.0  0.23879  0.99871  0.26891  1.0000
  C   C3        1.0  0.99920  0.81266  0.27032  1.0000
  C   C4        1.0  0.99881  0.76539  0.26846  1.0000
  C   C5        1.0  0.76684  0.00542  0.27204  1.0000
  C   C6        1.0  0.81404  0.00613  0.27538  1.0000
  C   C7        1.0  0.00667  0.18996  0.27549  1.0000
  C   C8        1.0  0.00621  0.23716  0.27200  1.0000
  H   H1        1.0  0.01074  0.25252  0.21155  1.0000
  H   H2        1.0  0.01197  0.17222  0.21781  1.0000
  H   H3        1.0  0.83170  0.01189  0.21778  1.0000
  H   H4        1.0  0.75140  0.01024  0.21177  1.0000
  H   H5        1.0  0.99487  0.83002  0.21189  1.0000
  H   H6        1.0  0.99417  0.74941  0.20856  1.0000
  H   H7        1.0  0.25486  0.99451  0.20898  1.0000
  H   H8        1.0  0.17426  0.99461  0.21200  1.0000
  C   C9        1.0  0.99696  0.52511  0.34146  1.0000
  C   C10       1.0  0.00441  0.55576  0.26990  1.0000
  C   C11       1.0  0.00376  0.60241  0.28901  1.0000
  H   H9        1.0  0.00813  0.62482  0.23774  1.0000
  C   C12       1.0  0.99758  0.47744  0.33323  1.0000
  C   C13       1.0  0.00798  0.38329  0.31302  1.0000
  C   C14       1.0  0.03824  0.41438  0.27490  1.0000
  N   N1        1.0  0.03215  0.45904  0.28661  1.0000
  H   H10       1.0  0.06532  0.40395  0.23837  1.0000
  C   C15       1.0  0.00949  0.54133  0.18239  1.0000
  O   O1        1.0  0.04070  0.55601  0.13763  1.0000
  O   O2        1.0  0.97604  0.52565  0.14470  1.0000
  H   H11       1.0  0.97525  0.51779  0.08760  1.0000
  C   C16       1.0  0.01396  0.33748  0.29909  1.0000
  H   H12       1.0  0.03301  0.32765  0.24808  1.0000
  C   C17       1.0  0.47897  0.99658  0.34247  1.0000
  C   C18       1.0  0.44836  0.00408  0.27091  1.0000
  C   C19       1.0  0.40170  0.00334  0.28992  1.0000
  H   H13       1.0  0.37931  0.00769  0.23861  1.0000
  C   C20       1.0  0.52664  0.99711  0.33422  1.0000
  C   C21       1.0  0.62082  0.00736  0.31399  1.0000
  C   C22       1.0  0.58980  0.03773  0.27606  1.0000
  N   N2        1.0  0.54513  0.03171  0.28777  1.0000
  H   H14       1.0  0.60029  0.06484  0.23967  1.0000
  C   C23       1.0  0.46298  0.00922  0.18350  1.0000
  O   O3        1.0  0.44820  0.04067  0.13959  1.0000
  O   O4        1.0  0.47566  0.97478  0.14503  1.0000
  H   H15       1.0  0.48292  0.97358  0.08763  1.0000
  C   C24       1.0  0.66663  0.01329  0.30003  1.0000
  H   H16       1.0  0.67648  0.03272  0.24958  1.0000
  C   C25       1.0  0.08412  0.11909  0.35922  1.0000
  C   C26       1.0  0.11740  0.08687  0.35724  1.0000
  C   C27       1.0  0.09699  0.04462  0.35678  1.0000
  N   N3        1.0  0.05221  0.05286  0.35836  1.0000
  C   C28       1.0  0.04253  0.09735  0.35932  1.0000
  C   C29       1.0  0.00011  0.11939  0.36026  1.0000
  C   C30       1.0  0.95792  0.09711  0.36118  1.0000
  N   N4        1.0  0.94998  0.05242  0.36126  1.0000
  C   C31       1.0  0.90558  0.04300  0.36105  1.0000
  C   C32       1.0  0.88359  0.08441  0.36154  1.0000
  C   C33       1.0  0.91581  0.11772  0.36107  1.0000
  C   C34       1.0  0.88467  0.00012  0.36009  1.0000
  C   C35       1.0  0.90803  0.95843  0.35902  1.0000
  N   N5        1.0  0.95281  0.95020  0.35892  1.0000
  C   C36       1.0  0.96249  0.90573  0.35614  1.0000
  C   C37       1.0  0.92091  0.88397  0.35547  1.0000
  C   C38       1.0  0.88763  0.91619  0.35666  1.0000
  C   C39       1.0  0.00490  0.88374  0.35426  1.0000
  C   C40       1.0  0.04709  0.90597  0.35426  1.0000
  N   N6        1.0  0.05504  0.95066  0.35517  1.0000
  C   C41       1.0  0.09944  0.96005  0.35404  1.0000
  C   C42       1.0  0.12141  0.91862  0.35262  1.0000
  C   C43       1.0  0.08917  0.88533  0.35238  1.0000
  C   C44       1.0  0.12033  0.00293  0.35442  1.0000
  C   C45       1.0  0.16820  0.00402  0.35219  1.0000
  C   C46       1.0  0.26384  0.00358  0.34846  1.0000
  C   C47       1.0  0.24032  0.00964  0.42986  1.0000
  C   C48       1.0  0.19308  0.00965  0.43179  1.0000
  C   C49       1.0  0.00520  0.83586  0.35186  1.0000
  C   C50       1.0  0.00411  0.74024  0.34776  1.0000
  C   C51       1.0  0.01087  0.76364  0.42910  1.0000
  C   C52       1.0  0.01122  0.81087  0.43121  1.0000
  C   C53       1.0  0.83680  0.99900  0.35702  1.0000
  C   C54       1.0  0.81137  0.99061  0.43501  1.0000
  C   C55       1.0  0.76414  0.98958  0.43133  1.0000
  C   C56       1.0  0.74123  0.99759  0.35025  1.0000
  C   C57       1.0  0.99974  0.16729  0.35731  1.0000
  C   C58       1.0  0.99188  0.19284  0.43537  1.0000
  C   C59       1.0  0.99876  0.26288  0.35020  1.0000
  C   C60       1.0  0.99107  0.24007  0.43152  1.0000
  H   H17       1.0  0.98515  0.25779  0.48898  1.0000
  H   H18       1.0  0.98646  0.17720  0.49536  1.0000
  H   H19       1.0  0.08999  0.15290  0.36010  1.0000
  H   H20       1.0  0.15100  0.09380  0.35617  1.0000
  H   H21       1.0  0.02978  0.02971  0.35787  1.0000
  H   H22       1.0  0.97523  0.97335  0.36021  1.0000
  H   H23       1.0  0.90903  0.15135  0.36047  1.0000
  H   H24       1.0  0.84975  0.09006  0.36151  1.0000
  H   H25       1.0  0.82708  0.98511  0.49489  1.0000
  H   H26       1.0  0.74650  0.98340  0.48878  1.0000
  H   H27       1.0  0.85403  0.90923  0.35555  1.0000
  H   H28       1.0  0.91505  0.85018  0.35341  1.0000
  H   H29       1.0  0.15524  0.91297  0.35167  1.0000
  H   H30       1.0  0.09588  0.85169  0.35100  1.0000
  H   H31       1.0  0.01589  0.82691  0.49104  1.0000
  H   H32       1.0  0.01581  0.74657  0.48753  1.0000
  H   H33       1.0  0.17696  0.01369  0.49170  1.0000
  H   H34       1.0  0.25730  0.01421  0.48853  1.0000
  N   N7        1.0  0.00332  0.69562  0.34074  1.0000
  N   N8        1.0  0.69653  0.99590  0.35159  1.0000
  N   N9        1.0  0.99704  0.30758  0.35131  1.0000
  N   N10       1.0  0.30847  0.00293  0.34160  1.0000
  C   C61       1.0  0.99668  0.61880  0.37680  1.0000
  C   C62       1.0  0.99002  0.58643  0.44454  1.0000
  N   N11       1.0  0.99051  0.54210  0.42478  1.0000
  C   C63       1.0  0.96576  0.44795  0.37333  1.0000
  C   C64       1.0  0.97150  0.40109  0.36225  1.0000
  H   H35       1.0  0.94832  0.37955  0.38929  1.0000
  H   H36       1.0  0.98477  0.59561  0.50960  1.0000
  C   C65       1.0  0.92787  0.46261  0.41915  1.0000
  O   O5        1.0  0.93088  0.46437  0.50052  1.0000
  O   O6        1.0  0.90065  0.48883  0.38501  1.0000
  H   H37       1.0  0.89660  0.49205  0.32667  1.0000
  C   C66       1.0  0.99582  0.66436  0.39828  1.0000
  H   H38       1.0  0.98850  0.67309  0.46079  1.0000
  C   C67       1.0  0.38526  0.99620  0.37767  1.0000
  C   C68       1.0  0.41762  0.98952  0.44544  1.0000
  N   N12       1.0  0.46195  0.99005  0.42575  1.0000
  C   C69       1.0  0.55605  0.96521  0.37421  1.0000
  C   C70       1.0  0.60292  0.97086  0.36308  1.0000
  H   H39       1.0  0.62439  0.94759  0.38997  1.0000
  H   H40       1.0  0.40841  0.98420  0.51047  1.0000
  C   C71       1.0  0.54130  0.92729  0.41973  1.0000
  O   O7        1.0  0.53963  0.92988  0.50120  1.0000
  O   O8        1.0  0.51488  0.90012  0.38600  1.0000
  H   H41       1.0  0.51132  0.89623  0.32769  1.0000
  C   C72       1.0  0.33970  0.99519  0.39905  1.0000
  H   H42       1.0  0.33094  0.98755  0.46140  1.0000
