data_image0
_chemical_formula_structural       C14H12C7NC12H12C2NC3NC3NC15H14CNCHNHCNCHNHCNCHNHCNCHNHCNCHNHCNCHNHC3NC2NC5NC3NC17H14CNC2NC4NC18H14C2NC19H12C4HC6HOHOHC4HC6HOHOHC4HC6HOHOHC4HC6HOHOHC4HC6HOHOHC4HC6HOHOH
_chemical_formula_sum              "C204 H114 N24 O12"
_cell_length_a       50.1384
_cell_length_b       50.1384
_cell_length_c       15.0138
_cell_angle_alpha    90.0312
_cell_angle_beta     89.9688
_cell_angle_gamma    120

_space_group_name_H-M_alt    "P 1"
_space_group_IT_number       1

loop_
  _space_group_symop_operation_xyz
  'x, y, z'

loop_
  _atom_site_type_symbol
  _atom_site_label
  _atom_site_symmetry_multiplicity
  _atom_site_fract_x
  _atom_site_fract_y
  _atom_site_fract_z
  _atom_site_occupancy
  C   C1        1.0  0.95726  0.53991  0.32796  1.0000
  C   C2        1.0  0.08219  0.53055  0.32599  1.0000
  C   C3        1.0  0.09222  0.56257  0.32792  1.0000
  C   C4        1.0  0.12277  0.61398  0.33127  1.0000
  C   C5        1.0  0.12277  0.58650  0.33221  1.0000
  C   C6        1.0  0.13487  0.71191  0.26441  1.0000
  C   C7        1.0  0.11152  0.68083  0.26000  1.0000
  C   C8        1.0  0.10533  0.52181  0.32662  1.0000
  C   C9        1.0  0.14967  0.52213  0.25726  1.0000
  C   C10       1.0  0.12550  0.52868  0.25370  1.0000
  C   C11       1.0  0.93805  0.42165  0.26005  1.0000
  C   C12       1.0  0.91479  0.39053  0.26448  1.0000
  C   C13       1.0  0.92399  0.57374  0.25355  1.0000
  C   C14       1.0  0.89976  0.58019  0.25709  1.0000
  H   H1        1.0  0.88463  0.57261  0.20502  1.0000
  H   H2        1.0  0.92593  0.56258  0.19892  1.0000
  H   H3        1.0  0.99579  0.63760  0.31924  1.0000
  H   H4        1.0  0.95060  0.42980  0.20264  1.0000
  H   H5        1.0  0.91180  0.37708  0.21001  1.0000
  H   H6        1.0  0.05369  0.46488  0.31933  1.0000
  H   H7        1.0  0.14223  0.63515  0.33281  1.0000
  H   H8        1.0  0.14223  0.58481  0.33511  1.0000
  H   H9        1.0  0.12360  0.53983  0.19905  1.0000
  H   H10       1.0  0.16478  0.52962  0.20513  1.0000
  H   H11       1.0  0.09901  0.67268  0.20255  1.0000
  H   H12       1.0  0.13797  0.72535  0.20989  1.0000
  C   C15       1.0  0.44823  0.45836  0.32087  1.0000
  C   C16       1.0  0.45375  0.50572  0.32596  1.0000
  C   C17       1.0  0.53557  0.49407  0.32761  1.0000
  C   C18       1.0  0.59472  0.59471  0.32623  1.0000
  C   C19       1.0  0.60024  0.64207  0.32128  1.0000
  C   C20       1.0  0.54492  0.62835  0.32557  1.0000
  C   C21       1.0  0.51291  0.60637  0.32753  1.0000
  N   N1        1.0  0.49923  0.57529  0.32625  1.0000
  C   C22       1.0  0.46150  0.58551  0.33101  1.0000
  C   C23       1.0  0.48897  0.61299  0.33181  1.0000
  C   C24       1.0  0.36356  0.49967  0.26416  1.0000
  C   C25       1.0  0.39464  0.50740  0.25971  1.0000
  C   C26       1.0  0.55367  0.66024  0.32622  1.0000
  C   C27       1.0  0.56838  0.72352  0.33123  1.0000
  C   C28       1.0  0.55337  0.70425  0.25684  1.0000
  C   C29       1.0  0.54679  0.67352  0.25333  1.0000
  C   C30       1.0  0.65383  0.59309  0.25977  1.0000
  C   C31       1.0  0.68495  0.60093  0.26422  1.0000
  C   C32       1.0  0.50175  0.42695  0.25319  1.0000
  C   C33       1.0  0.49529  0.39626  0.25674  1.0000
  H   H13       1.0  0.50288  0.38870  0.20468  1.0000
  H   H14       1.0  0.51292  0.44002  0.19857  1.0000
  H   H15       1.0  0.43788  0.43490  0.31871  1.0000
  H   H16       1.0  0.64568  0.59746  0.20233  1.0000
  H   H17       1.0  0.69840  0.61136  0.20976  1.0000
  H   H18       1.0  0.61060  0.66553  0.31896  1.0000
  H   H19       1.0  0.44033  0.58380  0.33249  1.0000
  H   H20       1.0  0.49066  0.63413  0.33473  1.0000
  H   H21       1.0  0.53566  0.66047  0.19863  1.0000
  H   H22       1.0  0.54585  0.71184  0.20475  1.0000
  H   H23       1.0  0.40278  0.50301  0.20224  1.0000
  H   H24       1.0  0.35011  0.48931  0.20966  1.0000
  C   C34       1.0  0.61712  0.06659  0.32114  1.0000
  C   C35       1.0  0.56976  0.02474  0.32590  1.0000
  N   N2        1.0  0.56777  0.05075  0.32575  1.0000
  C   C36       1.0  0.60340  0.10819  0.32542  1.0000
  C   C37       1.0  0.58141  0.11822  0.32737  1.0000
  C   C38       1.0  0.48077  0.07674  0.32598  1.0000
  N   N3        1.0  0.48276  0.05073  0.32577  1.0000
  C   C39       1.0  0.43341  0.03489  0.32128  1.0000
  C   C40       1.0  0.44713  0.99329  0.32543  1.0000
  C   C41       1.0  0.46911  0.98326  0.32731  1.0000
  N   N4        1.0  0.50019  0.00066  0.32607  1.0000
  C   C42       1.0  0.48997  0.95271  0.33064  1.0000
  C   C43       1.0  0.46250  0.95271  0.33147  1.0000
  C   C44       1.0  0.55462  0.97022  0.33315  1.0000
  C   C45       1.0  0.56921  0.92169  0.34038  1.0000
  C   C46       1.0  0.57584  0.94062  0.26384  1.0000
  C   C47       1.0  0.56810  0.96397  0.25940  1.0000
  C   C48       1.0  0.41524  0.97015  0.32615  1.0000
  C   C49       1.0  0.35197  0.92159  0.33130  1.0000
  C   C50       1.0  0.37123  0.92580  0.25691  1.0000
  C   C51       1.0  0.40193  0.94999  0.25323  1.0000
  C   C52       1.0  0.48237  0.13743  0.25946  1.0000
  C   C53       1.0  0.47453  0.16071  0.26392  1.0000
  C   C54       1.0  0.64856  0.15151  0.25315  1.0000
  C   C55       1.0  0.69849  0.18004  0.33124  1.0000
  C   C56       1.0  0.67924  0.17575  0.25682  1.0000
  H   H25       1.0  0.68683  0.19086  0.20472  1.0000
  H   H26       1.0  0.63551  0.14958  0.19848  1.0000
  H   H27       1.0  0.64058  0.07970  0.31869  1.0000
  H   H28       1.0  0.54865  0.05075  0.32888  1.0000
  H   H29       1.0  0.50188  0.05073  0.32862  1.0000
  H   H30       1.0  0.47800  0.12489  0.20204  1.0000
  H   H31       1.0  0.46411  0.16372  0.20945  1.0000
  H   H32       1.0  0.40995  0.02179  0.31904  1.0000
  H   H33       1.0  0.49168  0.93325  0.33198  1.0000
  H   H34       1.0  0.44135  0.93325  0.33433  1.0000
  H   H35       1.0  0.41498  0.95185  0.19857  1.0000
  H   H36       1.0  0.36361  0.91067  0.20481  1.0000
  H   H37       1.0  0.57249  0.97648  0.20195  1.0000
  H   H38       1.0  0.58622  0.93753  0.20935  1.0000
  C   C57       1.0  0.30555  0.50298  0.26390  1.0000
  N   N5        1.0  0.27760  0.50091  0.26721  1.0000
  C   C58       1.0  0.19458  0.49952  0.25907  1.0000
  H   H39       1.0  0.31608  0.50738  0.20321  1.0000
  N   N6        1.0  0.22073  0.49801  0.26462  1.0000
  H   H40       1.0  0.18650  0.49949  0.19671  1.0000
  C   C59       1.0  0.57259  0.87932  0.26355  1.0000
  N   N7        1.0  0.57462  0.85343  0.26687  1.0000
  C   C60       1.0  0.57596  0.77177  0.25871  1.0000
  H   H41       1.0  0.56814  0.88540  0.20288  1.0000
  N   N8        1.0  0.57748  0.79944  0.26426  1.0000
  H   H42       1.0  0.57600  0.76370  0.19635  1.0000
  C   C61       1.0  0.19619  0.76992  0.26403  1.0000
  N   N9        1.0  0.22207  0.79787  0.26727  1.0000
  C   C62       1.0  0.30370  0.88088  0.25891  1.0000
  H   H43       1.0  0.19007  0.75939  0.20334  1.0000
  N   N10       1.0  0.27604  0.85473  0.26454  1.0000
  H   H44       1.0  0.31176  0.88895  0.19655  1.0000
  C   C63       1.0  0.74319  0.59806  0.26401  1.0000
  N   N11       1.0  0.77124  0.60037  0.26730  1.0000
  C   C64       1.0  0.85460  0.60249  0.25906  1.0000
  H   H45       1.0  0.73269  0.59362  0.20328  1.0000
  N   N12       1.0  0.82833  0.60377  0.26466  1.0000
  H   H46       1.0  0.86274  0.60260  0.19670  1.0000
  C   C65       1.0  0.47742  0.22183  0.26367  1.0000
  N   N13       1.0  0.47512  0.24757  0.26696  1.0000
  C   C66       1.0  0.47300  0.32881  0.25871  1.0000
  H   H47       1.0  0.48187  0.21575  0.20295  1.0000
  N   N14       1.0  0.47172  0.30126  0.26432  1.0000
  H   H48       1.0  0.47288  0.33681  0.19635  1.0000
  C   C67       1.0  0.85372  0.33226  0.26414  1.0000
  N   N15       1.0  0.82795  0.30423  0.26739  1.0000
  C   C68       1.0  0.74670  0.22089  0.25895  1.0000
  H   H49       1.0  0.85978  0.34279  0.20345  1.0000
  N   N16       1.0  0.77426  0.24716  0.26462  1.0000
  H   H50       1.0  0.73872  0.21275  0.19657  1.0000
  C   C69       1.0  0.00889  0.62725  0.32173  1.0000
  C   C70       1.0  0.04061  0.64312  0.32477  1.0000
  C   C71       1.0  0.05074  0.62173  0.32650  1.0000
  N   N17       1.0  0.02473  0.59374  0.32639  1.0000
  C   C72       1.0  0.99874  0.59573  0.32465  1.0000
  C   C73       1.0  0.96729  0.57193  0.32597  1.0000
  N   N18       1.0  0.97466  0.52623  0.32672  1.0000
  C   C74       1.0  0.95729  0.49516  0.32942  1.0000
  C   C75       1.0  0.92671  0.48850  0.33144  1.0000
  C   C76       1.0  0.92671  0.51598  0.33225  1.0000
  C   C77       1.0  0.96734  0.47319  0.32940  1.0000
  C   C78       1.0  0.99874  0.48075  0.32649  1.0000
  N   N19       1.0  0.02475  0.50875  0.32621  1.0000
  C   C79       1.0  0.05074  0.50675  0.32453  1.0000
  C   C80       1.0  0.04059  0.47524  0.32146  1.0000
  C   C81       1.0  0.00887  0.45937  0.32471  1.0000
  N   N20       1.0  0.07482  0.57625  0.32664  1.0000
  C   C82       1.0  0.09219  0.60732  0.32932  1.0000
  C   C83       1.0  0.08214  0.62929  0.32930  1.0000
  C   C84       1.0  0.10526  0.66111  0.33377  1.0000
  C   C85       1.0  0.12295  0.67332  0.41179  1.0000
  C   C86       1.0  0.14714  0.70402  0.41440  1.0000
  C   C87       1.0  0.15380  0.72423  0.34094  1.0000
  C   C88       1.0  0.10910  0.50684  0.40110  1.0000
  C   C89       1.0  0.13237  0.49897  0.40237  1.0000
  C   C90       1.0  0.15387  0.50707  0.33158  1.0000
  C   C91       1.0  0.94423  0.44136  0.33381  1.0000
  C   C92       1.0  0.89585  0.37816  0.34100  1.0000
  C   C93       1.0  0.90239  0.39839  0.41440  1.0000
  C   C94       1.0  0.92649  0.42913  0.41178  1.0000
  C   C95       1.0  0.94414  0.58066  0.32649  1.0000
  C   C96       1.0  0.94031  0.59562  0.40096  1.0000
  C   C97       1.0  0.91696  0.60339  0.40222  1.0000
  C   C98       1.0  0.89545  0.59518  0.33147  1.0000
  H   H51       1.0  0.91589  0.61500  0.45676  1.0000
  H   H52       1.0  0.95464  0.60112  0.45482  1.0000
  H   H53       1.0  0.05372  0.66659  0.32524  1.0000
  H   H54       1.0  0.02473  0.57461  0.32936  1.0000
  H   H55       1.0  0.02475  0.52787  0.32967  1.0000
  H   H56       1.0  0.90725  0.51767  0.33514  1.0000
  H   H57       1.0  0.90725  0.46733  0.33292  1.0000
  H   H58       1.0  0.93017  0.44293  0.46607  1.0000
  H   H59       1.0  0.88903  0.39143  0.47040  1.0000
  H   H60       1.0  0.99577  0.43589  0.32540  1.0000
  H   H61       1.0  0.09474  0.50138  0.45494  1.0000
  H   H62       1.0  0.13336  0.48732  0.45687  1.0000
  H   H63       1.0  0.16053  0.71093  0.47035  1.0000
  H   H64       1.0  0.11925  0.65951  0.46603  1.0000
  C   C99       1.0  0.43236  0.47421  0.32413  1.0000
  N   N21       1.0  0.48174  0.50771  0.32575  1.0000
  C   C100      1.0  0.47975  0.47972  0.32404  1.0000
  C   C101      1.0  0.50355  0.47208  0.32556  1.0000
  N   N22       1.0  0.54925  0.52515  0.32633  1.0000
  C   C102      1.0  0.58031  0.53885  0.32908  1.0000
  C   C103      1.0  0.58697  0.51493  0.33116  1.0000
  C   C104      1.0  0.55950  0.48745  0.33198  1.0000
  C   C105      1.0  0.60229  0.57087  0.32908  1.0000
  N   N23       1.0  0.56673  0.59272  0.32597  1.0000
  C   C106      1.0  0.56872  0.62071  0.32424  1.0000
  C   C107      1.0  0.61611  0.62622  0.32452  1.0000
  C   C108      1.0  0.46816  0.56158  0.32897  1.0000
  C   C109      1.0  0.44618  0.52956  0.32896  1.0000
  C   C110      1.0  0.41436  0.52086  0.33347  1.0000
  C   C111      1.0  0.40216  0.52636  0.41153  1.0000
  C   C112      1.0  0.37147  0.51986  0.41417  1.0000
  C   C113      1.0  0.35125  0.50629  0.34073  1.0000
  C   C114      1.0  0.56863  0.67900  0.40071  1.0000
  C   C115      1.0  0.57649  0.71014  0.40200  1.0000
  C   C116      1.0  0.63411  0.57958  0.33351  1.0000
  C   C117      1.0  0.69730  0.59439  0.34077  1.0000
  C   C118      1.0  0.67707  0.58076  0.41421  1.0000
  C   C119      1.0  0.64633  0.57413  0.41154  1.0000
  C   C120      1.0  0.49481  0.44020  0.32610  1.0000
  C   C121      1.0  0.47984  0.42143  0.40056  1.0000
  C   C122      1.0  0.47208  0.39032  0.40185  1.0000
  C   C123      1.0  0.48029  0.37699  0.33111  1.0000
  H   H65       1.0  0.46046  0.37765  0.45638  1.0000
  H   H66       1.0  0.47434  0.43029  0.45440  1.0000
  H   H67       1.0  0.40889  0.46384  0.32471  1.0000
  H   H68       1.0  0.50086  0.52683  0.32932  1.0000
  H   H69       1.0  0.54760  0.57360  0.32910  1.0000
  H   H70       1.0  0.55781  0.46630  0.33493  1.0000
  H   H71       1.0  0.60814  0.51664  0.33272  1.0000
  H   H72       1.0  0.63252  0.56400  0.46579  1.0000
  H   H73       1.0  0.68401  0.57433  0.47017  1.0000
  H   H74       1.0  0.63958  0.63659  0.32508  1.0000
  H   H75       1.0  0.57409  0.67012  0.45455  1.0000
  H   H76       1.0  0.58814  0.72280  0.45651  1.0000
  H   H77       1.0  0.36456  0.52634  0.47015  1.0000
  H   H78       1.0  0.41598  0.53648  0.46576  1.0000
  C   C124      1.0  0.60128  0.03487  0.32419  1.0000
  C   C125      1.0  0.59576  0.07675  0.32407  1.0000
  N   N24       1.0  0.55034  0.10082  0.32611  1.0000
  C   C126      1.0  0.53663  0.11819  0.32878  1.0000
  C   C127      1.0  0.56055  0.14877  0.33076  1.0000
  C   C128      1.0  0.58803  0.14877  0.33163  1.0000
  C   C129      1.0  0.50461  0.10814  0.32875  1.0000
  C   C130      1.0  0.45477  0.02473  0.32413  1.0000
  C   C131      1.0  0.44926  0.06661  0.32443  1.0000
  C   C132      1.0  0.51389  0.98329  0.32867  1.0000
  C   C133      1.0  0.54592  0.99334  0.32867  1.0000
  C   C134      1.0  0.54911  0.95253  0.41119  1.0000
  C   C135      1.0  0.55563  0.92835  0.41382  1.0000
  C   C136      1.0  0.39651  0.96638  0.40070  1.0000
  C   C137      1.0  0.36537  0.94310  0.40206  1.0000
  C   C138      1.0  0.49590  0.13125  0.33319  1.0000
  C   C139      1.0  0.48110  0.17964  0.34045  1.0000
  C   C140      1.0  0.49473  0.17307  0.41387  1.0000
  C   C141      1.0  0.50138  0.14897  0.41119  1.0000
  C   C142      1.0  0.63528  0.13134  0.32605  1.0000
  C   C143      1.0  0.65403  0.13516  0.40058  1.0000
  C   C144      1.0  0.68514  0.15851  0.40195  1.0000
  H   H79       1.0  0.69779  0.15956  0.45651  1.0000
  H   H80       1.0  0.64515  0.12081  0.45440  1.0000
  H   H81       1.0  0.61164  0.02176  0.32462  1.0000
  H   H82       1.0  0.60917  0.16823  0.33455  1.0000
  H   H83       1.0  0.55884  0.16823  0.33223  1.0000
  H   H84       1.0  0.51150  0.14530  0.46545  1.0000
  H   H85       1.0  0.50117  0.18646  0.46982  1.0000
  H   H86       1.0  0.43889  0.07971  0.32503  1.0000
  H   H87       1.0  0.40540  0.98073  0.45454  1.0000
  H   H88       1.0  0.35273  0.94211  0.45661  1.0000
  H   H89       1.0  0.54915  0.91498  0.46978  1.0000
  H   H90       1.0  0.53898  0.95624  0.46542  1.0000
  C   C145      1.0  0.32031  0.50123  0.34240  1.0000
  C   C146      1.0  0.26188  0.49723  0.34402  1.0000
  C   C147      1.0  0.27491  0.49526  0.42584  1.0000
  C   C148      1.0  0.30359  0.49626  0.42296  1.0000
  H   H91       1.0  0.31277  0.49410  0.48141  1.0000
  C   C149      1.0  0.23374  0.49717  0.34296  1.0000
  C   C150      1.0  0.17963  0.50178  0.33652  1.0000
  C   C151      1.0  0.19256  0.50002  0.41903  1.0000
  C   C152      1.0  0.21915  0.49709  0.42396  1.0000
  C   C153      1.0  0.23212  0.49509  0.50580  1.0000
  C   C154      1.0  0.25949  0.49351  0.50663  1.0000
  H   H92       1.0  0.18339  0.50228  0.47733  1.0000
  O   O1        1.0  0.21811  0.49379  0.58476  1.0000
  H   H93       1.0  0.22706  0.51520  0.60546  1.0000
  O   O2        1.0  0.27106  0.49111  0.58644  1.0000
  H   H94       1.0  0.28458  0.51230  0.60753  1.0000
  C   C155      1.0  0.57432  0.89584  0.34206  1.0000
  C   C156      1.0  0.57828  0.84139  0.34368  1.0000
  C   C157      1.0  0.58025  0.85642  0.42549  1.0000
  C   C158      1.0  0.57926  0.88411  0.42263  1.0000
  H   H95       1.0  0.58140  0.89545  0.48108  1.0000
  C   C159      1.0  0.57832  0.81330  0.34261  1.0000
  C   C160      1.0  0.57369  0.75457  0.33616  1.0000
  C   C161      1.0  0.57545  0.76929  0.41868  1.0000
  C   C162      1.0  0.57839  0.79882  0.42360  1.0000
  C   C163      1.0  0.58038  0.81380  0.50544  1.0000
  C   C164      1.0  0.58197  0.84276  0.50629  1.0000
  H   H96       1.0  0.57317  0.75786  0.47696  1.0000
  O   O3        1.0  0.58166  0.80112  0.58441  1.0000
  H   H97       1.0  0.56025  0.78867  0.60508  1.0000
  O   O4        1.0  0.58438  0.85675  0.58610  1.0000
  H   H98       1.0  0.56319  0.84910  0.60717  1.0000
  C   C165      1.0  0.17968  0.75518  0.34256  1.0000
  C   C166      1.0  0.23411  0.81360  0.34405  1.0000
  C   C167      1.0  0.21911  0.80059  0.42590  1.0000
  C   C168      1.0  0.19141  0.77190  0.42310  1.0000
  H   H99       1.0  0.18009  0.76273  0.48158  1.0000
  C   C169      1.0  0.26220  0.84173  0.34292  1.0000
  C   C170      1.0  0.32092  0.89583  0.33633  1.0000
  C   C171      1.0  0.30623  0.88293  0.41889  1.0000
  C   C172      1.0  0.27670  0.85633  0.42388  1.0000
  C   C173      1.0  0.26174  0.84337  0.50576  1.0000
  C   C174      1.0  0.23278  0.81600  0.50667  1.0000
  H   H100      1.0  0.31767  0.89210  0.47714  1.0000
  O   O5        1.0  0.27444  0.85739  0.58469  1.0000
  H   H101      1.0  0.28690  0.84844  0.60534  1.0000
  O   O6        1.0  0.21881  0.80446  0.58650  1.0000
  H   H102      1.0  0.22647  0.79094  0.60759  1.0000
  C   C175      1.0  0.72832  0.59966  0.34250  1.0000
  C   C176      1.0  0.78696  0.60414  0.34412  1.0000
  C   C177      1.0  0.77381  0.60594  0.42596  1.0000
  C   C178      1.0  0.74501  0.60469  0.42310  1.0000
  H   H103      1.0  0.73575  0.60674  0.48156  1.0000
  C   C179      1.0  0.81522  0.60445  0.34303  1.0000
  C   C180      1.0  0.86958  0.60030  0.33648  1.0000
  C   C181      1.0  0.85658  0.60195  0.41903  1.0000
  C   C182      1.0  0.82983  0.60462  0.42401  1.0000
  C   C183      1.0  0.81675  0.60645  0.50588  1.0000
  C   C184      1.0  0.78924  0.60777  0.50675  1.0000
  H   H104      1.0  0.86575  0.59969  0.47729  1.0000
  O   O7        1.0  0.83077  0.60782  0.58483  1.0000
  H   H105      1.0  0.82195  0.58642  0.60540  1.0000
  O   O8        1.0  0.77756  0.61002  0.58658  1.0000
  H   H106      1.0  0.76416  0.58879  0.60754  1.0000
  C   C185      1.0  0.47584  0.20540  0.34217  1.0000
  C   C186      1.0  0.47135  0.25955  0.34379  1.0000
  C   C187      1.0  0.46955  0.24463  0.42562  1.0000
  C   C188      1.0  0.47079  0.21707  0.42276  1.0000
  H   H107      1.0  0.46875  0.20578  0.48123  1.0000
  C   C189      1.0  0.47104  0.28750  0.34270  1.0000
  C   C190      1.0  0.47517  0.34600  0.33614  1.0000
  C   C191      1.0  0.47356  0.33140  0.41869  1.0000
  C   C192      1.0  0.47086  0.30197  0.42367  1.0000
  C   C193      1.0  0.46904  0.28709  0.50554  1.0000
  C   C194      1.0  0.46771  0.25825  0.50641  1.0000
  H   H108      1.0  0.47577  0.34283  0.47694  1.0000
  O   O9        1.0  0.46766  0.29975  0.58449  1.0000
  H   H109      1.0  0.48906  0.31234  0.60507  1.0000
  O   O10       1.0  0.46546  0.24435  0.58625  1.0000
  H   H110      1.0  0.48669  0.25218  0.60720  1.0000
  C   C195      1.0  0.87012  0.34714  0.34268  1.0000
  C   C196      1.0  0.81595  0.28851  0.34419  1.0000
  C   C197      1.0  0.83085  0.30164  0.42606  1.0000
  C   C198      1.0  0.85841  0.33044  0.42326  1.0000
  H   H111      1.0  0.86968  0.33970  0.48175  1.0000
  C   C199      1.0  0.78799  0.26025  0.34303  1.0000
  C   C200      1.0  0.72948  0.20589  0.33633  1.0000
  C   C201      1.0  0.74407  0.21890  0.41892  1.0000
  C   C202      1.0  0.77350  0.24563  0.42397  1.0000
  C   C203      1.0  0.78836  0.25870  0.50587  1.0000
  C   C204      1.0  0.81720  0.28621  0.50681  1.0000
  H   H112      1.0  0.73261  0.20969  0.47714  1.0000
  O   O11       1.0  0.77566  0.24468  0.58480  1.0000
  H   H113      1.0  0.76307  0.25349  0.60532  1.0000
  O   O12       1.0  0.83107  0.29787  0.58668  1.0000
  H   H114      1.0  0.82324  0.31127  0.60762  1.0000
