data_image0
_chemical_formula_structural       N12C4HCH3C4HCH3C4HCH3C4HCH3C4HCH3C4HCH3C4HCH3C4HCH3C4HCH3C4HCH3C4HCH3C4HCH3CNCNCNCNCNCNCNCNCNCNCNCNCNCNCNCNCNCNCNCNCNCNCNCNCNCNCNCNCNCNCNCNCNCNCNCNC4HCH3C4HCH3C4HCH3C4HCH3C4HCH3C4HCH3N24
_chemical_formula_sum              "N72 C126 H72"
_cell_length_a       36.9143
_cell_length_b       36.9143
_cell_length_c       14.8636
_cell_angle_alpha    90
_cell_angle_beta     90
_cell_angle_gamma    120

_space_group_name_H-M_alt    "P 1"
_space_group_IT_number       1

loop_
  _space_group_symop_operation_xyz
  'x, y, z'

loop_
  _atom_site_type_symbol
  _atom_site_label
  _atom_site_symmetry_multiplicity
  _atom_site_fract_x
  _atom_site_fract_y
  _atom_site_fract_z
  _atom_site_occupancy
  N   N1        1.0  0.16673  0.37308  0.29242  1.0000
  N   N2        1.0  0.18668  0.41413  0.29695  1.0000
  N   N3        1.0  0.62971  0.78701  0.29358  1.0000
  N   N4        1.0  0.58866  0.76587  0.29806  1.0000
  N   N5        1.0  0.21558  0.83608  0.29334  1.0000
  N   N6        1.0  0.23668  0.81613  0.29792  1.0000
  N   N7        1.0  0.84132  0.62442  0.29323  1.0000
  N   N8        1.0  0.82138  0.58337  0.29776  1.0000
  N   N9        1.0  0.37824  0.21041  0.29325  1.0000
  N   N10       1.0  0.41930  0.23153  0.29773  1.0000
  N   N11       1.0  0.79238  0.16136  0.29302  1.0000
  N   N12       1.0  0.77127  0.18130  0.29754  1.0000
  C   C1        1.0  0.18031  0.21817  0.27834  1.0000
  C   C2        1.0  0.16224  0.17903  0.23484  1.0000
  C   C3        1.0  0.18300  0.15563  0.23109  1.0000
  C   C4        1.0  0.22298  0.17246  0.27347  1.0000
  H   H1        1.0  0.13367  0.16751  0.20482  1.0000
  C   C5        1.0  0.16179  0.11504  0.18203  1.0000
  H   H2        1.0  0.13461  0.11048  0.14359  1.0000
  H   H3        1.0  0.15084  0.08942  0.23023  1.0000
  H   H4        1.0  0.18340  0.11332  0.13447  1.0000
  C   C6        1.0  0.78469  0.95566  0.27849  1.0000
  C   C7        1.0  0.82386  0.97670  0.23511  1.0000
  C   C8        1.0  0.84725  0.02086  0.23124  1.0000
  C   C9        1.0  0.83037  0.04402  0.27336  1.0000
  H   H5        1.0  0.83541  0.95964  0.20529  1.0000
  C   C10       1.0  0.88787  0.04021  0.18231  1.0000
  H   H6        1.0  0.89248  0.01757  0.14410  1.0000
  H   H7        1.0  0.91346  0.05495  0.23057  1.0000
  H   H8        1.0  0.88960  0.06349  0.13458  1.0000
  C   C11       1.0  0.04702  0.82248  0.27849  1.0000
  C   C12       1.0  0.02596  0.84056  0.23505  1.0000
  C   C13       1.0  0.98179  0.81977  0.23126  1.0000
  C   C14       1.0  0.95865  0.77976  0.27351  1.0000
  H   H9        1.0  0.04299  0.86915  0.20517  1.0000
  C   C15       1.0  0.96240  0.84099  0.18229  1.0000
  H   H10       1.0  0.98502  0.86822  0.14397  1.0000
  H   H11       1.0  0.94769  0.85188  0.23053  1.0000
  H   H12       1.0  0.93910  0.81941  0.13464  1.0000
  C   C16       1.0  0.82766  0.77934  0.27858  1.0000
  C   C17       1.0  0.84572  0.81845  0.23502  1.0000
  C   C18       1.0  0.82495  0.84184  0.23120  1.0000
  C   C19       1.0  0.78497  0.82502  0.27359  1.0000
  H   H13       1.0  0.87429  0.82997  0.20501  1.0000
  C   C20       1.0  0.84615  0.88241  0.18206  1.0000
  H   H14       1.0  0.87332  0.88695  0.14359  1.0000
  H   H15       1.0  0.85713  0.90805  0.23021  1.0000
  H   H16       1.0  0.82453  0.88412  0.13452  1.0000
  C   C21       1.0  0.22328  0.04183  0.27858  1.0000
  C   C22       1.0  0.18414  0.02077  0.23514  1.0000
  C   C23       1.0  0.16075  0.97661  0.23130  1.0000
  C   C24       1.0  0.17762  0.95345  0.27352  1.0000
  H   H17       1.0  0.17259  0.03781  0.20525  1.0000
  C   C25       1.0  0.12014  0.95723  0.18230  1.0000
  H   H18       1.0  0.11555  0.97986  0.14400  1.0000
  H   H19       1.0  0.09454  0.94252  0.23054  1.0000
  H   H20       1.0  0.11843  0.93394  0.13464  1.0000
  C   C26       1.0  0.96095  0.17500  0.27816  1.0000
  C   C27       1.0  0.98201  0.15690  0.23479  1.0000
  C   C28       1.0  0.02617  0.17768  0.23099  1.0000
  C   C29       1.0  0.04931  0.21772  0.27312  1.0000
  H   H21       1.0  0.96497  0.12829  0.20498  1.0000
  C   C30       1.0  0.04556  0.15643  0.18213  1.0000
  H   H22       1.0  0.02294  0.12917  0.14390  1.0000
  H   H23       1.0  0.06028  0.14558  0.23044  1.0000
  H   H24       1.0  0.06885  0.17797  0.13442  1.0000
  C   C31       1.0  0.23003  0.64998  0.39038  1.0000
  C   C32       1.0  0.19635  0.61446  0.34895  1.0000
  C   C33       1.0  0.19577  0.57524  0.34687  1.0000
  C   C34       1.0  0.22930  0.57262  0.38831  1.0000
  H   H25       1.0  0.17537  0.61844  0.31143  1.0000
  C   C35       1.0  0.16372  0.53965  0.29372  1.0000
  H   H26       1.0  0.14032  0.54623  0.26547  1.0000
  H   H27       1.0  0.14759  0.51213  0.33679  1.0000
  H   H28       1.0  0.17859  0.53258  0.23828  1.0000
  C   C36       1.0  0.35274  0.57342  0.39029  1.0000
  C   C37       1.0  0.38820  0.57530  0.34841  1.0000
  C   C38       1.0  0.42747  0.61389  0.34646  1.0000
  C   C39       1.0  0.43012  0.65004  0.38797  1.0000
  H   H29       1.0  0.38421  0.55029  0.31110  1.0000
  C   C40       1.0  0.46303  0.61745  0.29318  1.0000
  H   H30       1.0  0.45641  0.58746  0.26484  1.0000
  H   H31       1.0  0.49057  0.62880  0.33616  1.0000
  H   H32       1.0  0.47008  0.63940  0.23780  1.0000
  C   C41       1.0  0.42904  0.77252  0.38952  1.0000
  C   C42       1.0  0.42725  0.80632  0.34855  1.0000
  C   C43       1.0  0.38863  0.80696  0.34680  1.0000
  C   C44       1.0  0.35249  0.77337  0.38816  1.0000
  H   H33       1.0  0.45218  0.82731  0.31100  1.0000
  C   C45       1.0  0.38507  0.83909  0.29405  1.0000
  H   H34       1.0  0.41505  0.86252  0.26581  1.0000
  H   H35       1.0  0.37372  0.85517  0.33738  1.0000
  H   H36       1.0  0.36311  0.82432  0.23862  1.0000
  C   C46       1.0  0.77795  0.34748  0.38984  1.0000
  C   C47       1.0  0.81165  0.38306  0.34858  1.0000
  C   C48       1.0  0.81227  0.42230  0.34687  1.0000
  C   C49       1.0  0.77875  0.42489  0.38846  1.0000
  H   H37       1.0  0.83263  0.37908  0.31108  1.0000
  C   C50       1.0  0.84435  0.45796  0.29393  1.0000
  H   H38       1.0  0.86774  0.45139  0.26555  1.0000
  H   H39       1.0  0.86049  0.48542  0.33717  1.0000
  H   H40       1.0  0.82951  0.46513  0.23859  1.0000
  C   C51       1.0  0.65526  0.42391  0.39038  1.0000
  C   C52       1.0  0.61978  0.42208  0.34876  1.0000
  C   C53       1.0  0.58049  0.38351  0.34685  1.0000
  C   C54       1.0  0.57780  0.34734  0.38840  1.0000
  H   H41       1.0  0.62376  0.44713  0.31159  1.0000
  C   C55       1.0  0.54492  0.38000  0.29373  1.0000
  H   H42       1.0  0.55155  0.41000  0.26540  1.0000
  H   H43       1.0  0.51741  0.36869  0.33683  1.0000
  H   H44       1.0  0.53778  0.35803  0.23835  1.0000
  C   C56       1.0  0.57885  0.22485  0.38933  1.0000
  C   C57       1.0  0.58061  0.19106  0.34823  1.0000
  C   C58       1.0  0.61923  0.19044  0.34624  1.0000
  C   C59       1.0  0.65541  0.22404  0.38746  1.0000
  H   H45       1.0  0.55565  0.17008  0.31075  1.0000
  C   C60       1.0  0.62277  0.15834  0.29330  1.0000
  H   H46       1.0  0.59277  0.13490  0.26516  1.0000
  H   H47       1.0  0.63418  0.14226  0.33647  1.0000
  H   H48       1.0  0.64468  0.17314  0.23779  1.0000
  C   C61       1.0  0.15871  0.24094  0.28585  1.0000
  N   N13       1.0  0.17864  0.28253  0.30306  1.0000
  C   C62       1.0  0.15828  0.30464  0.31079  1.0000
  N   N14       1.0  0.11578  0.28337  0.29929  1.0000
  C   C63       1.0  0.09394  0.24137  0.28159  1.0000
  N   N15       1.0  0.11655  0.22160  0.27625  1.0000
  C   C64       1.0  0.76190  0.91129  0.28605  1.0000
  N   N16       1.0  0.72029  0.88968  0.30305  1.0000
  C   C65       1.0  0.69810  0.84721  0.31082  1.0000
  N   N17       1.0  0.71935  0.82594  0.29956  1.0000
  C   C66       1.0  0.76136  0.84603  0.28202  1.0000
  N   N18       1.0  0.78120  0.88843  0.27664  1.0000
  C   C67       1.0  0.09140  0.84408  0.28603  1.0000
  N   N19       1.0  0.11302  0.82412  0.30318  1.0000
  C   C68       1.0  0.15549  0.84443  0.31101  1.0000
  N   N20       1.0  0.17674  0.88694  0.29962  1.0000
  C   C69       1.0  0.15662  0.90882  0.28197  1.0000
  N   N21       1.0  0.11423  0.88623  0.27655  1.0000
  C   C70       1.0  0.84927  0.75657  0.28613  1.0000
  N   N22       1.0  0.82932  0.71497  0.30326  1.0000
  C   C71       1.0  0.84965  0.69284  0.31103  1.0000
  N   N23       1.0  0.89216  0.71411  0.29963  1.0000
  C   C72       1.0  0.91402  0.75611  0.28199  1.0000
  N   N24       1.0  0.89142  0.77590  0.27660  1.0000
  C   C73       1.0  0.24607  0.08620  0.28612  1.0000
  N   N25       1.0  0.28767  0.10782  0.30320  1.0000
  C   C74       1.0  0.30984  0.15029  0.31095  1.0000
  N   N26       1.0  0.28859  0.17155  0.29956  1.0000
  C   C75       1.0  0.24659  0.15144  0.28195  1.0000
  N   N27       1.0  0.22676  0.10905  0.27661  1.0000
  C   C76       1.0  0.91657  0.15341  0.28573  1.0000
  N   N28       1.0  0.89494  0.17337  0.30287  1.0000
  C   C77       1.0  0.85248  0.15305  0.31071  1.0000
  N   N29       1.0  0.83123  0.11053  0.29938  1.0000
  C   C78       1.0  0.85135  0.08865  0.28171  1.0000
  N   N30       1.0  0.89375  0.11125  0.27629  1.0000
  C   C79       1.0  0.30954  0.54369  0.38096  1.0000
  N   N31       1.0  0.28886  0.50318  0.35350  1.0000
  C   C80       1.0  0.24608  0.48133  0.34210  1.0000
  N   N32       1.0  0.22384  0.50198  0.35187  1.0000
  C   C81       1.0  0.24288  0.54273  0.37979  1.0000
  N   N33       1.0  0.28449  0.56007  0.39327  1.0000
  C   C82       1.0  0.45884  0.75914  0.38013  1.0000
  N   N34       1.0  0.49939  0.77906  0.35298  1.0000
  C   C83       1.0  0.52134  0.75820  0.34184  1.0000
  N   N35       1.0  0.50073  0.71530  0.35155  1.0000
  C   C84       1.0  0.45991  0.69352  0.37899  1.0000
  N   N36       1.0  0.44251  0.71774  0.39243  1.0000
  C   C85       1.0  0.24334  0.69317  0.38137  1.0000
  N   N37       1.0  0.22348  0.71380  0.35384  1.0000
  C   C86       1.0  0.24437  0.75659  0.34249  1.0000
  N   N38       1.0  0.28727  0.77886  0.35214  1.0000
  C   C87       1.0  0.30902  0.75985  0.37997  1.0000
  N   N39       1.0  0.28477  0.71824  0.39346  1.0000
  C   C88       1.0  0.69845  0.45375  0.38141  1.0000
  N   N40       1.0  0.71908  0.49423  0.35380  1.0000
  C   C89       1.0  0.76187  0.51613  0.34247  1.0000
  N   N41       1.0  0.78414  0.49551  0.35220  1.0000
  C   C90       1.0  0.76514  0.45475  0.38008  1.0000
  N   N42       1.0  0.72352  0.43739  0.39361  1.0000
  C   C91       1.0  0.54905  0.23824  0.38013  1.0000
  N   N43       1.0  0.50849  0.21836  0.35298  1.0000
  C   C92       1.0  0.48657  0.23925  0.34191  1.0000
  N   N44       1.0  0.50719  0.28214  0.35181  1.0000
  C   C93       1.0  0.54799  0.30388  0.37944  1.0000
  N   N45       1.0  0.56538  0.27964  0.39264  1.0000
  C   C94       1.0  0.76455  0.30431  0.38030  1.0000
  N   N46       1.0  0.78445  0.28364  0.35319  1.0000
  C   C95       1.0  0.76356  0.24085  0.34190  1.0000
  N   N47       1.0  0.72065  0.21859  0.35141  1.0000
  C   C96       1.0  0.69888  0.23765  0.37878  1.0000
  N   N48       1.0  0.72313  0.27925  0.39237  1.0000
  C   C97       1.0  0.22540  0.43696  0.33385  1.0000
  C   C98       1.0  0.24272  0.41405  0.37259  1.0000
  C   C99       1.0  0.22126  0.36985  0.37046  1.0000
  C   C100      1.0  0.18183  0.34875  0.32565  1.0000
  H   H49       1.0  0.27081  0.42966  0.40545  1.0000
  C   C101      1.0  0.23992  0.34784  0.41932  1.0000
  H   H50       1.0  0.26652  0.36885  0.46121  1.0000
  H   H51       1.0  0.25101  0.33319  0.37134  1.0000
  H   H52       1.0  0.21661  0.32395  0.46355  1.0000
  C   C102      1.0  0.56571  0.78195  0.33344  1.0000
  C   C103      1.0  0.58853  0.82252  0.37067  1.0000
  C   C104      1.0  0.63274  0.84533  0.36865  1.0000
  C   C105      1.0  0.65396  0.82673  0.32541  1.0000
  H   H53       1.0  0.57285  0.83518  0.40249  1.0000
  C   C106      1.0  0.65457  0.88642  0.41592  1.0000
  H   H54       1.0  0.63347  0.89230  0.45675  1.0000
  H   H55       1.0  0.66922  0.91175  0.36698  1.0000
  H   H56       1.0  0.67845  0.88747  0.46094  1.0000
  C   C107      1.0  0.22066  0.77724  0.33404  1.0000
  C   C108      1.0  0.18024  0.75972  0.37190  1.0000
  C   C109      1.0  0.15748  0.78117  0.36976  1.0000
  C   C110      1.0  0.17599  0.82080  0.32577  1.0000
  H   H57       1.0  0.16764  0.73150  0.40421  1.0000
  C   C111      1.0  0.11656  0.76219  0.41771  1.0000
  H   H58       1.0  0.11081  0.73540  0.45908  1.0000
  H   H59       1.0  0.09106  0.75132  0.36917  1.0000
  H   H60       1.0  0.11573  0.78526  0.46232  1.0000
  C   C112      1.0  0.78251  0.56049  0.33397  1.0000
  C   C113      1.0  0.76503  0.58337  0.37209  1.0000
  C   C114      1.0  0.78646  0.62758  0.36995  1.0000
  C   C115      1.0  0.82606  0.64872  0.32583  1.0000
  H   H61       1.0  0.73683  0.56774  0.40448  1.0000
  C   C116      1.0  0.76754  0.64952  0.41811  1.0000
  H   H62       1.0  0.74078  0.62847  0.45958  1.0000
  H   H63       1.0  0.75661  0.66415  0.36969  1.0000
  H   H64       1.0  0.79065  0.67341  0.46266  1.0000
  C   C117      1.0  0.44221  0.21552  0.33363  1.0000
  C   C118      1.0  0.41936  0.17506  0.37138  1.0000
  C   C119      1.0  0.37516  0.15228  0.36935  1.0000
  C   C120      1.0  0.35397  0.17079  0.32559  1.0000
  H   H65       1.0  0.43502  0.16248  0.40358  1.0000
  C   C121      1.0  0.35326  0.11135  0.41725  1.0000
  H   H66       1.0  0.37435  0.10558  0.45844  1.0000
  H   H67       1.0  0.33859  0.08586  0.36868  1.0000
  H   H68       1.0  0.32940  0.11049  0.46202  1.0000
  C   C122      1.0  0.78727  0.22019  0.33367  1.0000
  C   C123      1.0  0.82768  0.23772  0.37160  1.0000
  C   C124      1.0  0.85045  0.21629  0.36947  1.0000
  C   C125      1.0  0.83196  0.17665  0.32551  1.0000
  H   H69       1.0  0.84028  0.26596  0.40383  1.0000
  C   C126      1.0  0.89137  0.23528  0.41740  1.0000
  H   H70       1.0  0.89712  0.26208  0.45875  1.0000
  H   H71       1.0  0.91687  0.24616  0.36885  1.0000
  H   H72       1.0  0.89223  0.21223  0.46203  1.0000
  N   N49       1.0  0.23871  0.21104  0.31171  1.0000
  N   N50       1.0  0.21905  0.23245  0.31399  1.0000
  N   N51       1.0  0.79177  0.02119  0.31149  1.0000
  N   N52       1.0  0.77037  0.98012  0.31389  1.0000
  N   N53       1.0  0.98151  0.76403  0.31169  1.0000
  N   N54       1.0  0.02258  0.78371  0.31402  1.0000
  N   N55       1.0  0.76925  0.78645  0.31188  1.0000
  N   N56       1.0  0.78892  0.76505  0.31421  1.0000
  N   N57       1.0  0.21620  0.97630  0.31172  1.0000
  N   N58       1.0  0.23760  0.01737  0.31408  1.0000
  N   N59       1.0  0.02646  0.23347  0.31124  1.0000
  N   N60       1.0  0.98539  0.21379  0.31360  1.0000
  N   N61       1.0  0.25655  0.60719  0.43532  1.0000
  N   N62       1.0  0.25711  0.64228  0.43631  1.0000
  N   N63       1.0  0.39558  0.64275  0.43509  1.0000
  N   N64       1.0  0.36049  0.60823  0.43619  1.0000
  N   N65       1.0  0.35983  0.74610  0.43504  1.0000
  N   N66       1.0  0.39432  0.74548  0.43570  1.0000
  N   N67       1.0  0.75147  0.39026  0.43527  1.0000
  N   N68       1.0  0.75087  0.35515  0.43594  1.0000
  N   N69       1.0  0.61239  0.35461  0.43528  1.0000
  N   N70       1.0  0.64751  0.38910  0.43629  1.0000
  N   N71       1.0  0.64811  0.25130  0.43449  1.0000
  N   N72       1.0  0.61361  0.25190  0.43539  1.0000
