data_image0
_chemical_formula_structural       NC3N2HNC3N2HNC3N2HCNCNCNC18H12C3O3CNCNCNC18H12C3O3CNC2N2HCNC2N2HCNC2N2H
_chemical_formula_sum              "N24 C66 H30 O6"
_cell_length_a       36.2838
_cell_length_b       36.2832
_cell_length_c       15.0825
_cell_angle_alpha    90
_cell_angle_beta     90
_cell_angle_gamma    120

_space_group_name_H-M_alt    "P 1"
_space_group_IT_number       1

loop_
  _space_group_symop_operation_xyz
  'x, y, z'

loop_
  _atom_site_type_symbol
  _atom_site_label
  _atom_site_symmetry_multiplicity
  _atom_site_fract_x
  _atom_site_fract_y
  _atom_site_fract_z
  _atom_site_occupancy
  N   N1        1.0  0.52265  0.49616  0.26970  1.0000
  C   C1        1.0  0.49606  0.50995  0.24266  1.0000
  C   C2        1.0  0.46742  0.51081  0.30529  1.0000
  C   C3        1.0  0.49765  0.52022  0.15959  1.0000
  N   N2        1.0  0.49900  0.52920  0.08618  1.0000
  N   N3        1.0  0.44166  0.52738  0.28743  1.0000
  H   H1        1.0  0.45093  0.54858  0.24031  1.0000
  N   N4        1.0  0.49705  0.02512  0.26956  1.0000
  C   C4        1.0  0.48326  0.98473  0.24255  1.0000
  C   C5        1.0  0.48242  0.95524  0.30516  1.0000
  C   C6        1.0  0.47294  0.97603  0.15950  1.0000
  N   N5        1.0  0.46391  0.96837  0.08611  1.0000
  N   N6        1.0  0.46579  0.91289  0.28741  1.0000
  H   H2        1.0  0.44455  0.90096  0.24038  1.0000
  N   N7        1.0  0.96803  0.47056  0.26950  1.0000
  C   C7        1.0  0.00843  0.49716  0.24251  1.0000
  C   C8        1.0  0.03792  0.52581  0.30513  1.0000
  C   C9        1.0  0.01714  0.49555  0.15946  1.0000
  N   N8        1.0  0.02480  0.49419  0.08607  1.0000
  N   N9        1.0  0.08026  0.55152  0.28740  1.0000
  H   H3        1.0  0.09220  0.54220  0.24040  1.0000
  C   C10       1.0  0.28617  0.64922  0.33297  1.0000
  N   N10       1.0  0.30167  0.62203  0.33291  1.0000
  C   C11       1.0  0.34393  0.63558  0.33291  1.0000
  N   N11       1.0  0.37112  0.67826  0.33291  1.0000
  C   C12       1.0  0.35758  0.70698  0.33298  1.0000
  N   N12       1.0  0.31489  0.69149  0.33297  1.0000
  C   C13       1.0  0.35917  0.60637  0.33257  1.0000
  C   C14       1.0  0.33107  0.56188  0.33914  1.0000
  C   C15       1.0  0.34655  0.53326  0.33978  1.0000
  C   C16       1.0  0.39059  0.54827  0.33203  1.0000
  C   C17       1.0  0.41874  0.59262  0.32611  1.0000
  C   C18       1.0  0.40330  0.62114  0.32632  1.0000
  C   C19       1.0  0.24173  0.63399  0.33268  1.0000
  C   C20       1.0  0.21236  0.58985  0.32648  1.0000
  C   C21       1.0  0.16841  0.57442  0.32624  1.0000
  C   C22       1.0  0.15221  0.60257  0.33211  1.0000
  C   C23       1.0  0.18124  0.64661  0.33985  1.0000
  C   C24       1.0  0.22534  0.66209  0.33921  1.0000
  C   C25       1.0  0.38679  0.75143  0.33269  1.0000
  C   C26       1.0  0.37202  0.78080  0.32654  1.0000
  C   C27       1.0  0.40054  0.82475  0.32630  1.0000
  C   C28       1.0  0.44490  0.84095  0.33213  1.0000
  C   C29       1.0  0.45990  0.81191  0.33982  1.0000
  C   C30       1.0  0.43128  0.76782  0.33915  1.0000
  H   H4        1.0  0.14841  0.54216  0.32414  1.0000
  H   H5        1.0  0.22246  0.56813  0.32249  1.0000
  H   H6        1.0  0.17056  0.66785  0.34490  1.0000
  H   H7        1.0  0.24529  0.69425  0.34448  1.0000
  H   H8        1.0  0.34020  0.77070  0.32255  1.0000
  H   H9        1.0  0.38829  0.84475  0.32416  1.0000
  H   H10       1.0  0.44349  0.74787  0.34442  1.0000
  H   H11       1.0  0.49182  0.82259  0.34482  1.0000
  H   H12       1.0  0.42502  0.65296  0.32226  1.0000
  H   H13       1.0  0.45100  0.60489  0.32392  1.0000
  H   H14       1.0  0.32531  0.50134  0.34489  1.0000
  H   H15       1.0  0.29891  0.54966  0.34446  1.0000
  C   C31       1.0  0.10772  0.58629  0.33553  1.0000
  C   C32       1.0  0.47313  0.88544  0.33548  1.0000
  C   C33       1.0  0.40687  0.52006  0.33549  1.0000
  O   O1        1.0  0.38815  0.48669  0.39218  1.0000
  O   O2        1.0  0.50651  0.90009  0.39212  1.0000
  O   O3        1.0  0.09305  0.60506  0.39204  1.0000
  C   C34       1.0  0.70559  0.34521  0.32182  1.0000
  N   N13       1.0  0.69017  0.37247  0.32191  1.0000
  C   C35       1.0  0.64793  0.35901  0.32182  1.0000
  N   N14       1.0  0.62067  0.31634  0.32190  1.0000
  C   C36       1.0  0.63413  0.28755  0.32181  1.0000
  N   N15       1.0  0.67680  0.30296  0.32189  1.0000
  C   C37       1.0  0.63280  0.38830  0.32285  1.0000
  C   C38       1.0  0.66100  0.43280  0.31710  1.0000
  C   C39       1.0  0.64564  0.46152  0.31770  1.0000
  C   C40       1.0  0.60164  0.44661  0.32592  1.0000
  C   C41       1.0  0.57339  0.40224  0.33093  1.0000
  C   C42       1.0  0.58869  0.37362  0.32942  1.0000
  C   C43       1.0  0.75001  0.36035  0.32281  1.0000
  C   C44       1.0  0.77943  0.40446  0.32938  1.0000
  C   C45       1.0  0.82335  0.41979  0.33075  1.0000
  C   C46       1.0  0.83948  0.39155  0.32573  1.0000
  C   C47       1.0  0.81041  0.34754  0.31754  1.0000
  C   C48       1.0  0.76633  0.33217  0.31701  1.0000
  C   C49       1.0  0.60485  0.24313  0.32280  1.0000
  C   C50       1.0  0.61953  0.21370  0.32938  1.0000
  C   C51       1.0  0.59093  0.16978  0.33082  1.0000
  C   C52       1.0  0.54656  0.15366  0.32579  1.0000
  C   C53       1.0  0.53164  0.18274  0.31757  1.0000
  C   C54       1.0  0.56034  0.22681  0.31700  1.0000
  H   H16       1.0  0.84341  0.45204  0.33321  1.0000
  H   H17       1.0  0.76939  0.42624  0.33294  1.0000
  H   H18       1.0  0.82103  0.32624  0.31303  1.0000
  H   H19       1.0  0.74635  0.30002  0.31153  1.0000
  H   H20       1.0  0.65135  0.22374  0.33290  1.0000
  H   H21       1.0  0.60312  0.14973  0.33319  1.0000
  H   H22       1.0  0.54818  0.24680  0.31152  1.0000
  H   H23       1.0  0.49971  0.17211  0.31304  1.0000
  H   H24       1.0  0.56690  0.34181  0.33290  1.0000
  H   H25       1.0  0.54114  0.39006  0.33327  1.0000
  H   H26       1.0  0.66696  0.49345  0.31320  1.0000
  H   H27       1.0  0.69314  0.44496  0.31162  1.0000
  C   C55       1.0  0.88397  0.40771  0.32337  1.0000
  C   C56       1.0  0.51824  0.10917  0.32341  1.0000
  C   C57       1.0  0.58550  0.47495  0.32361  1.0000
  O   O4        1.0  0.60428  0.50855  0.26749  1.0000
  O   O5        1.0  0.48458  0.09432  0.26748  1.0000
  O   O6        1.0  0.89881  0.38891  0.26740  1.0000
  C   C58       1.0  0.52489  0.48402  0.35400  1.0000
  N   N16       1.0  0.46961  0.49862  0.38957  1.0000
  C   C59       1.0  0.49621  0.48482  0.41659  1.0000
  C   C60       1.0  0.49457  0.47444  0.49960  1.0000
  N   N17       1.0  0.49319  0.46536  0.57295  1.0000
  N   N18       1.0  0.55064  0.46742  0.37164  1.0000
  H   H28       1.0  0.54124  0.44600  0.41831  1.0000
  C   C61       1.0  0.50921  0.03950  0.35385  1.0000
  N   N19       1.0  0.49457  0.96962  0.38946  1.0000
  C   C62       1.0  0.50838  0.01002  0.41648  1.0000
  C   C63       1.0  0.51868  0.01875  0.49953  1.0000
  N   N20       1.0  0.52769  0.02643  0.57291  1.0000
  N   N21       1.0  0.52576  0.08184  0.37154  1.0000
  H   H29       1.0  0.54719  0.09387  0.41819  1.0000
  C   C64       1.0  0.95363  0.46834  0.35377  1.0000
  N   N22       1.0  0.02352  0.52358  0.38943  1.0000
  C   C65       1.0  0.98311  0.49698  0.41642  1.0000
  C   C66       1.0  0.97438  0.49858  0.49945  1.0000
  N   N23       1.0  0.96668  0.49992  0.57282  1.0000
  N   N24       1.0  0.91130  0.44256  0.37146  1.0000
  H   H30       1.0  0.89925  0.45193  0.41816  1.0000
