data_image0
_chemical_formula_structural       C30H17NHNHNHC30H17NHNHNHCNC2HNHCH2CNC2HNHCH2CNC2HNHCH10C4HC5HOHOHCH2C4HC5HOHOHCH2C4HC5HOHOHCH2
_chemical_formula_sum              "C102 H78 N12 O6"
_cell_length_a       52.1015
_cell_length_b       52.1015
_cell_length_c       15.0053
_cell_angle_alpha    90
_cell_angle_beta     90
_cell_angle_gamma    120

_space_group_name_H-M_alt    "P 1"
_space_group_IT_number       1

loop_
  _space_group_symop_operation_xyz
  'x, y, z'

loop_
  _atom_site_type_symbol
  _atom_site_label
  _atom_site_symmetry_multiplicity
  _atom_site_fract_x
  _atom_site_fract_y
  _atom_site_fract_z
  _atom_site_occupancy
  C   C1        1.0  0.15922  0.58164  0.31893  1.0000
  C   C2        1.0  0.17638  0.61030  0.35561  1.0000
  C   C3        1.0  0.20714  0.62272  0.36712  1.0000
  C   C4        1.0  0.22123  0.60662  0.34224  1.0000
  C   C5        1.0  0.20401  0.57785  0.30638  1.0000
  C   C6        1.0  0.17330  0.56561  0.29414  1.0000
  C   C7        1.0  0.25149  0.61870  0.35192  1.0000
  C   C8        1.0  0.27115  0.64133  0.30134  1.0000
  C   C9        1.0  0.30168  0.65350  0.30712  1.0000
  C   C10       1.0  0.31493  0.63552  0.30638  1.0000
  C   C11       1.0  0.34606  0.64810  0.30698  1.0000
  C   C12       1.0  0.36405  0.67933  0.30630  1.0000
  C   C13       1.0  0.35146  0.69788  0.30699  1.0000
  C   C14       1.0  0.32023  0.68463  0.30641  1.0000
  C   C15       1.0  0.36982  0.72841  0.30119  1.0000
  C   C16       1.0  0.36686  0.74807  0.35181  1.0000
  C   C17       1.0  0.38504  0.77833  0.34215  1.0000
  C   C18       1.0  0.37351  0.79556  0.30625  1.0000
  C   C19       1.0  0.41524  0.79241  0.36704  1.0000
  C   C20       1.0  0.43358  0.82317  0.35559  1.0000
  C   C21       1.0  0.42208  0.84034  0.31889  1.0000
  C   C22       1.0  0.39198  0.82626  0.29406  1.0000
  C   C23       1.0  0.35823  0.62974  0.30119  1.0000
  C   C24       1.0  0.38086  0.63271  0.35177  1.0000
  C   C25       1.0  0.39294  0.61453  0.34212  1.0000
  C   C26       1.0  0.37683  0.58434  0.36704  1.0000
  C   C27       1.0  0.42170  0.62606  0.30620  1.0000
  C   C28       1.0  0.43393  0.60759  0.29403  1.0000
  C   C29       1.0  0.41790  0.57748  0.31887  1.0000
  C   C30       1.0  0.38924  0.56599  0.35557  1.0000
  H   H1        1.0  0.16656  0.62234  0.37319  1.0000
  H   H2        1.0  0.21913  0.64360  0.39331  1.0000
  H   H3        1.0  0.31085  0.69785  0.30370  1.0000
  H   H4        1.0  0.30171  0.61291  0.30370  1.0000
  H   H5        1.0  0.38665  0.68872  0.30357  1.0000
  H   H6        1.0  0.35596  0.57546  0.39327  1.0000
  H   H7        1.0  0.35173  0.78586  0.28747  1.0000
  H   H8        1.0  0.45544  0.83299  0.37316  1.0000
  H   H9        1.0  0.42411  0.78042  0.39325  1.0000
  H   H10       1.0  0.37721  0.54413  0.37318  1.0000
  H   H11       1.0  0.43378  0.64783  0.28742  1.0000
  H   H12       1.0  0.35047  0.74105  0.39597  1.0000
  H   H13       1.0  0.38632  0.73594  0.25710  1.0000
  H   H14       1.0  0.25851  0.60930  0.39599  1.0000
  H   H15       1.0  0.26362  0.65032  0.25731  1.0000
  H   H16       1.0  0.39025  0.64911  0.39589  1.0000
  H   H17       1.0  0.34924  0.61323  0.25715  1.0000
  N   N1        1.0  0.43980  0.87120  0.30476  1.0000
  H   H18       1.0  0.45810  0.87518  0.26817  1.0000
  N   N2        1.0  0.12836  0.56849  0.30478  1.0000
  H   H19       1.0  0.12439  0.58281  0.26817  1.0000
  N   N3        1.0  0.43105  0.55976  0.30475  1.0000
  H   H20       1.0  0.41672  0.54146  0.26816  1.0000
  C   C31       1.0  0.83991  0.41643  0.34689  1.0000
  C   C32       1.0  0.82308  0.38830  0.30660  1.0000
  C   C33       1.0  0.79254  0.37632  0.29149  1.0000
  C   C34       1.0  0.77837  0.39236  0.31611  1.0000
  C   C35       1.0  0.79531  0.42069  0.35502  1.0000
  C   C36       1.0  0.82578  0.43247  0.37093  1.0000
  C   C37       1.0  0.74819  0.38042  0.30474  1.0000
  C   C38       1.0  0.72824  0.35785  0.35494  1.0000
  C   C39       1.0  0.69776  0.34592  0.34826  1.0000
  C   C40       1.0  0.68474  0.36411  0.34898  1.0000
  C   C41       1.0  0.65364  0.35176  0.34830  1.0000
  C   C42       1.0  0.63545  0.32055  0.34896  1.0000
  C   C43       1.0  0.64780  0.30180  0.34829  1.0000
  C   C44       1.0  0.67901  0.31481  0.34894  1.0000
  C   C45       1.0  0.62927  0.27132  0.35499  1.0000
  C   C46       1.0  0.63187  0.25137  0.30476  1.0000
  C   C47       1.0  0.61363  0.22119  0.31613  1.0000
  C   C48       1.0  0.62502  0.20424  0.35504  1.0000
  C   C49       1.0  0.58341  0.20701  0.29152  1.0000
  C   C50       1.0  0.56485  0.17647  0.30662  1.0000
  C   C51       1.0  0.57616  0.15965  0.34690  1.0000
  C   C52       1.0  0.60633  0.17378  0.37095  1.0000
  C   C53       1.0  0.64170  0.37029  0.35500  1.0000
  C   C54       1.0  0.61914  0.36769  0.30478  1.0000
  C   C55       1.0  0.60720  0.38593  0.31618  1.0000
  C   C56       1.0  0.62324  0.41615  0.29156  1.0000
  C   C57       1.0  0.57888  0.37454  0.35516  1.0000
  C   C58       1.0  0.56709  0.39323  0.37103  1.0000
  C   C59       1.0  0.58313  0.42340  0.34698  1.0000
  C   C60       1.0  0.61126  0.43471  0.30670  1.0000
  H   H21       1.0  0.83291  0.37619  0.28995  1.0000
  H   H22       1.0  0.78071  0.35569  0.26354  1.0000
  H   H23       1.0  0.68822  0.30144  0.35196  1.0000
  H   H24       1.0  0.69811  0.38669  0.35197  1.0000
  H   H25       1.0  0.61287  0.31134  0.35200  1.0000
  H   H26       1.0  0.64386  0.42494  0.26355  1.0000
  H   H27       1.0  0.64678  0.21404  0.37410  1.0000
  H   H28       1.0  0.54292  0.16665  0.28996  1.0000
  H   H29       1.0  0.57462  0.21884  0.26355  1.0000
  H   H30       1.0  0.62336  0.45664  0.28998  1.0000
  H   H31       1.0  0.56690  0.35278  0.37413  1.0000
  H   H32       1.0  0.64808  0.25809  0.26008  1.0000
  H   H33       1.0  0.61298  0.26406  0.39974  1.0000
  H   H34       1.0  0.74147  0.38992  0.26009  1.0000
  H   H35       1.0  0.73549  0.34882  0.39968  1.0000
  H   H36       1.0  0.60965  0.35148  0.26010  1.0000
  H   H37       1.0  0.65073  0.38658  0.39977  1.0000
  N   N4        1.0  0.55806  0.12923  0.36708  1.0000
  H   H38       1.0  0.54023  0.12648  0.40389  1.0000
  N   N5        1.0  0.87032  0.42875  0.36706  1.0000
  H   H39       1.0  0.87307  0.41366  0.40387  1.0000
  N   N6        1.0  0.57081  0.44150  0.36712  1.0000
  H   H40       1.0  0.58589  0.45933  0.40393  1.0000
  C   C61       1.0  0.46676  0.53099  0.28885  1.0000
  N   N7        1.0  0.48309  0.51745  0.28153  1.0000
  C   C62       1.0  0.53276  0.47664  0.23988  1.0000
  C   C63       1.0  0.54320  0.46640  0.31054  1.0000
  H   H41       1.0  0.46094  0.53740  0.23164  1.0000
  N   N8        1.0  0.51651  0.48982  0.25659  1.0000
  H   H42       1.0  0.53720  0.47420  0.17506  1.0000
  C   C64       1.0  0.56075  0.45173  0.28905  1.0000
  H   H43       1.0  0.58009  0.46718  0.24982  1.0000
  H   H44       1.0  0.54681  0.43253  0.24709  1.0000
  C   C65       1.0  0.46857  0.93568  0.28884  1.0000
  N   N9        1.0  0.48211  0.96555  0.28153  1.0000
  C   C66       1.0  0.52292  0.05604  0.23986  1.0000
  C   C67       1.0  0.53315  0.07672  0.31051  1.0000
  H   H45       1.0  0.46216  0.92346  0.23164  1.0000
  N   N10       1.0  0.50973  0.02660  0.25657  1.0000
  H   H46       1.0  0.52535  0.06291  0.17504  1.0000
  C   C68       1.0  0.54782  0.10893  0.28902  1.0000
  H   H47       1.0  0.53237  0.11282  0.24980  1.0000
  H   H48       1.0  0.56701  0.11418  0.24704  1.0000
  C   C69       1.0  0.06388  0.53278  0.28885  1.0000
  N   N11       1.0  0.03401  0.51645  0.28153  1.0000
  C   C70       1.0  0.94352  0.46679  0.23985  1.0000
  C   C71       1.0  0.92284  0.45635  0.31050  1.0000
  H   H49       1.0  0.07610  0.53860  0.23165  1.0000
  N   N12       1.0  0.97296  0.48304  0.25657  1.0000
  H   H50       1.0  0.93665  0.46234  0.17503  1.0000
  C   C72       1.0  0.89062  0.43880  0.28900  1.0000
  H   H51       1.0  0.88674  0.41946  0.24978  1.0000
  H   H52       1.0  0.88537  0.45274  0.24703  1.0000
  H   H53       1.0  0.16120  0.54486  0.26735  1.0000
  H   H54       1.0  0.21371  0.56578  0.28756  1.0000
  H   H55       1.0  0.38333  0.83837  0.26729  1.0000
  H   H56       1.0  0.45469  0.61623  0.26724  1.0000
  H   H57       1.0  0.83762  0.45279  0.40065  1.0000
  H   H58       1.0  0.78552  0.43266  0.37408  1.0000
  H   H59       1.0  0.61481  0.16194  0.40067  1.0000
  H   H60       1.0  0.54677  0.38475  0.40072  1.0000
  C   C73       1.0  0.45821  0.53600  0.37356  1.0000
  C   C74       1.0  0.49231  0.50807  0.35272  1.0000
  C   C75       1.0  0.48484  0.51260  0.44006  1.0000
  C   C76       1.0  0.46774  0.52666  0.44887  1.0000
  H   H61       1.0  0.46197  0.53014  0.51106  1.0000
  C   C77       1.0  0.50927  0.49411  0.34009  1.0000
  C   C78       1.0  0.53591  0.47052  0.39827  1.0000
  C   C79       1.0  0.51901  0.48445  0.41464  1.0000
  C   C80       1.0  0.51155  0.48898  0.50175  1.0000
  C   C81       1.0  0.49457  0.50300  0.51439  1.0000
  H   H62       1.0  0.54283  0.46318  0.45110  1.0000
  O   O1        1.0  0.52132  0.48085  0.57482  1.0000
  H   H63       1.0  0.50570  0.46060  0.58973  1.0000
  O   O2        1.0  0.48860  0.50784  0.59914  1.0000
  H   H64       1.0  0.46983  0.49018  0.61599  1.0000
  C   C82       1.0  0.44016  0.55059  0.38724  1.0000
  H   H65       1.0  0.45337  0.57031  0.42813  1.0000
  H   H66       1.0  0.42035  0.53544  0.42521  1.0000
  C   C83       1.0  0.46357  0.92213  0.37356  1.0000
  C   C84       1.0  0.49149  0.98416  0.35271  1.0000
  C   C85       1.0  0.48696  0.97215  0.44005  1.0000
  C   C86       1.0  0.47290  0.94099  0.44887  1.0000
  H   H67       1.0  0.46943  0.93175  0.51106  1.0000
  C   C87       1.0  0.50545  0.01508  0.34008  1.0000
  C   C88       1.0  0.52903  0.06530  0.39825  1.0000
  C   C89       1.0  0.51511  0.03447  0.41462  1.0000
  C   C90       1.0  0.51058  0.02248  0.50173  1.0000
  C   C91       1.0  0.49657  0.99149  0.51438  1.0000
  H   H68       1.0  0.53638  0.07957  0.45107  1.0000
  O   O3        1.0  0.51870  0.04038  0.57480  1.0000
  H   H69       1.0  0.53895  0.04501  0.58973  1.0000
  O   O4        1.0  0.49172  0.98067  0.59913  1.0000
  H   H70       1.0  0.50937  0.97956  0.61599  1.0000
  C   C92       1.0  0.44897  0.88948  0.38724  1.0000
  H   H71       1.0  0.42926  0.88299  0.42815  1.0000
  H   H72       1.0  0.46413  0.88483  0.42522  1.0000
  C   C93       1.0  0.07742  0.54133  0.37357  1.0000
  C   C94       1.0  0.01540  0.50724  0.35271  1.0000
  C   C95       1.0  0.02740  0.51471  0.44004  1.0000
  C   C96       1.0  0.05856  0.53181  0.44888  1.0000
  H   H73       1.0  0.06781  0.53758  0.51106  1.0000
  C   C97       1.0  0.98448  0.49028  0.34007  1.0000
  C   C98       1.0  0.93426  0.46364  0.39824  1.0000
  C   C99       1.0  0.96509  0.48054  0.41461  1.0000
  C   C100      1.0  0.97707  0.48801  0.50173  1.0000
  C   C101      1.0  0.00806  0.50498  0.51438  1.0000
  H   H74       1.0  0.91998  0.45672  0.45106  1.0000
  O   O5        1.0  0.95917  0.47823  0.57480  1.0000
  H   H75       1.0  0.95454  0.49386  0.58970  1.0000
  O   O6        1.0  0.01888  0.51095  0.59913  1.0000
  H   H76       1.0  0.01999  0.52972  0.61597  1.0000
  C   C102      1.0  0.11007  0.55938  0.38726  1.0000
  H   H77       1.0  0.11657  0.54617  0.42817  1.0000
  H   H78       1.0  0.11473  0.57920  0.42521  1.0000
