data_image0
_chemical_formula_structural       C8H3NO2C8H3NO2C8H3NO2C2HC2HC2H4C2HC2HC2H4C2HC2HC2H4C2HC2HC2H4C2HC2HC2H4C2HC2HC2H4NC18H12NC18H12NC18H12NC18H12NC18H12NC18H12C2HC2HC2H4C2HC2HC2H4C2HC2HC2H4C8H3NO2C8H3NO2C8H3NO2C8H3NO2C8H3NO2C8H3NO2
_chemical_formula_sum              "C234 H153 N15 O18"
_cell_length_a       68.757
_cell_length_b       68.757
_cell_length_c       14.9207
_cell_angle_alpha    90
_cell_angle_beta     90
_cell_angle_gamma    120

_space_group_name_H-M_alt    "P 1"
_space_group_IT_number       1

loop_
  _space_group_symop_operation_xyz
  'x, y, z'

loop_
  _atom_site_type_symbol
  _atom_site_label
  _atom_site_symmetry_multiplicity
  _atom_site_fract_x
  _atom_site_fract_y
  _atom_site_fract_z
  _atom_site_occupancy
  C   C1        1.0  0.94337  0.47350  0.32399  1.0000
  C   C2        1.0  0.95512  0.48304  0.24321  1.0000
  C   C3        1.0  0.97891  0.49480  0.23724  1.0000
  C   C4        1.0  0.99211  0.49750  0.31485  1.0000
  C   C5        1.0  0.01651  0.50964  0.31591  1.0000
  C   C6        1.0  0.02971  0.50919  0.24395  1.0000
  C   C7        1.0  0.05332  0.52060  0.24835  1.0000
  C   C8        1.0  0.06518  0.53306  0.32500  1.0000
  H   H1        1.0  0.02229  0.49960  0.18857  1.0000
  H   H2        1.0  0.06178  0.51909  0.19492  1.0000
  H   H3        1.0  0.94630  0.48215  0.18672  1.0000
  N   N1        1.0  0.98931  0.50522  0.15531  1.0000
  O   O1        1.0  0.98391  0.49117  0.09285  1.0000
  O   O2        1.0  0.98460  0.51998  0.13249  1.0000
  C   C9        1.0  0.53315  0.47121  0.32406  1.0000
  C   C10       1.0  0.52363  0.47343  0.24325  1.0000
  C   C11       1.0  0.51184  0.48543  0.23729  1.0000
  C   C12       1.0  0.50911  0.49591  0.31492  1.0000
  C   C13       1.0  0.49699  0.50818  0.31597  1.0000
  C   C14       1.0  0.49744  0.52182  0.24401  1.0000
  C   C15       1.0  0.48603  0.53403  0.24839  1.0000
  C   C16       1.0  0.47358  0.53344  0.32503  1.0000
  H   H4        1.0  0.50703  0.52400  0.18863  1.0000
  H   H5        1.0  0.48755  0.54400  0.19495  1.0000
  H   H6        1.0  0.52452  0.46550  0.18677  1.0000
  N   N2        1.0  0.50142  0.48541  0.15535  1.0000
  O   O3        1.0  0.51547  0.49407  0.09289  1.0000
  O   O4        1.0  0.48669  0.46594  0.13252  1.0000
  C   C17       1.0  0.53544  0.06326  0.32402  1.0000
  C   C18       1.0  0.53323  0.05151  0.24323  1.0000
  C   C19       1.0  0.52121  0.02773  0.23727  1.0000
  C   C20       1.0  0.51072  0.01452  0.31489  1.0000
  C   C21       1.0  0.49844  0.99013  0.31597  1.0000
  C   C22       1.0  0.48478  0.97693  0.24402  1.0000
  C   C23       1.0  0.47259  0.95332  0.24837  1.0000
  C   C24       1.0  0.47318  0.94146  0.32503  1.0000
  H   H7        1.0  0.48264  0.98435  0.18858  1.0000
  H   H8        1.0  0.46263  0.94487  0.19491  1.0000
  H   H9        1.0  0.54116  0.06033  0.18674  1.0000
  N   N3        1.0  0.52123  0.01732  0.15534  1.0000
  O   O5        1.0  0.51258  0.02272  0.09287  1.0000
  O   O6        1.0  0.54070  0.02204  0.13252  1.0000
  C   C25       1.0  0.25985  0.55223  0.27095  1.0000
  C   C26       1.0  0.24016  0.55367  0.26073  1.0000
  H   H10       1.0  0.23558  0.55556  0.19757  1.0000
  C   C27       1.0  0.32001  0.54919  0.28820  1.0000
  C   C28       1.0  0.29817  0.54641  0.28607  1.0000
  H   H11       1.0  0.32658  0.54751  0.22928  1.0000
  C   C29       1.0  0.28529  0.54034  0.20068  1.0000
  C   C30       1.0  0.27326  0.55409  0.18959  1.0000
  H   H12       1.0  0.27279  0.52245  0.20263  1.0000
  H   H13       1.0  0.29601  0.54321  0.14229  1.0000
  H   H14       1.0  0.26265  0.54797  0.12987  1.0000
  H   H15       1.0  0.28567  0.57178  0.17878  1.0000
  C   C31       1.0  0.45440  0.70894  0.27092  1.0000
  C   C32       1.0  0.45296  0.68782  0.26072  1.0000
  H   H16       1.0  0.45105  0.68134  0.19756  1.0000
  C   C33       1.0  0.45746  0.77216  0.28813  1.0000
  C   C34       1.0  0.46023  0.75309  0.28600  1.0000
  H   H17       1.0  0.45911  0.78039  0.22919  1.0000
  C   C35       1.0  0.46628  0.74627  0.20058  1.0000
  C   C36       1.0  0.45252  0.72048  0.18956  1.0000
  H   H18       1.0  0.48417  0.75165  0.20245  1.0000
  H   H19       1.0  0.46340  0.75411  0.14221  1.0000
  H   H20       1.0  0.45861  0.71598  0.12983  1.0000
  H   H21       1.0  0.43483  0.71520  0.17885  1.0000
  C   C37       1.0  0.29768  0.74682  0.27099  1.0000
  C   C38       1.0  0.31880  0.76650  0.26078  1.0000
  H   H22       1.0  0.32527  0.77109  0.19761  1.0000
  C   C39       1.0  0.23448  0.68663  0.28819  1.0000
  C   C40       1.0  0.25354  0.70848  0.28610  1.0000
  H   H23       1.0  0.22623  0.68007  0.22929  1.0000
  C   C41       1.0  0.26034  0.72136  0.20072  1.0000
  C   C42       1.0  0.28612  0.73341  0.18960  1.0000
  H   H24       1.0  0.25494  0.73386  0.20272  1.0000
  H   H25       1.0  0.25249  0.71065  0.14233  1.0000
  H   H26       1.0  0.29061  0.74403  0.12993  1.0000
  H   H27       1.0  0.29141  0.72101  0.17873  1.0000
  C   C43       1.0  0.74710  0.45178  0.27055  1.0000
  C   C44       1.0  0.76692  0.45057  0.26040  1.0000
  H   H28       1.0  0.77144  0.44854  0.19732  1.0000
  C   C45       1.0  0.68697  0.45493  0.28751  1.0000
  C   C46       1.0  0.70875  0.45757  0.28514  1.0000
  H   H29       1.0  0.68030  0.45641  0.22850  1.0000
  C   C47       1.0  0.72143  0.46321  0.19929  1.0000
  C   C48       1.0  0.73345  0.44942  0.18938  1.0000
  H   H30       1.0  0.73391  0.48112  0.19974  1.0000
  H   H31       1.0  0.71056  0.46003  0.14114  1.0000
  H   H32       1.0  0.74387  0.45519  0.12906  1.0000
  H   H33       1.0  0.72102  0.43168  0.18026  1.0000
  C   C49       1.0  0.55495  0.29669  0.27044  1.0000
  C   C50       1.0  0.55615  0.31771  0.26030  1.0000
  H   H34       1.0  0.55820  0.32427  0.19724  1.0000
  C   C51       1.0  0.55178  0.23339  0.28735  1.0000
  C   C52       1.0  0.54915  0.25255  0.28498  1.0000
  H   H35       1.0  0.55034  0.22527  0.22832  1.0000
  C   C53       1.0  0.54355  0.25960  0.19909  1.0000
  C   C54       1.0  0.55734  0.28541  0.18929  1.0000
  H   H36       1.0  0.52565  0.25419  0.19944  1.0000
  H   H37       1.0  0.54676  0.25193  0.14096  1.0000
  H   H38       1.0  0.55161  0.29008  0.12893  1.0000
  H   H39       1.0  0.57509  0.29073  0.18031  1.0000
  C   C55       1.0  0.70996  0.25957  0.27051  1.0000
  C   C56       1.0  0.68894  0.23975  0.26036  1.0000
  H   H40       1.0  0.68238  0.23524  0.19730  1.0000
  C   C57       1.0  0.77327  0.31968  0.28742  1.0000
  C   C58       1.0  0.75411  0.29790  0.28506  1.0000
  H   H41       1.0  0.78139  0.32636  0.22839  1.0000
  C   C59       1.0  0.74707  0.28524  0.19919  1.0000
  C   C60       1.0  0.72125  0.27323  0.18934  1.0000
  H   H42       1.0  0.75247  0.27274  0.19957  1.0000
  H   H43       1.0  0.75474  0.29612  0.14104  1.0000
  H   H44       1.0  0.71658  0.26282  0.12900  1.0000
  H   H45       1.0  0.71594  0.28567  0.18034  1.0000
  N   N4        1.0  0.16167  0.58049  0.33545  1.0000
  C   C61       1.0  0.17441  0.60391  0.35517  1.0000
  C   C62       1.0  0.13781  0.56882  0.33340  1.0000
  C   C63       1.0  0.17410  0.56922  0.32141  1.0000
  C   C64       1.0  0.19111  0.57713  0.25563  1.0000
  C   C65       1.0  0.20792  0.57115  0.25850  1.0000
  C   C66       1.0  0.20791  0.55629  0.32460  1.0000
  C   C67       1.0  0.18942  0.54680  0.38472  1.0000
  C   C68       1.0  0.17310  0.55345  0.38440  1.0000
  C   C69       1.0  0.17469  0.61989  0.29524  1.0000
  C   C70       1.0  0.19103  0.64279  0.30288  1.0000
  C   C71       1.0  0.20850  0.65061  0.36775  1.0000
  C   C72       1.0  0.20727  0.63434  0.42981  1.0000
  C   C73       1.0  0.19033  0.61165  0.42519  1.0000
  C   C74       1.0  0.12627  0.56636  0.25240  1.0000
  C   C75       1.0  0.10261  0.55494  0.25017  1.0000
  C   C76       1.0  0.08947  0.54505  0.32818  1.0000
  C   C77       1.0  0.10145  0.54759  0.40901  1.0000
  C   C78       1.0  0.12511  0.55944  0.41186  1.0000
  H   H46       1.0  0.19041  0.65353  0.25724  1.0000
  H   H47       1.0  0.16368  0.61479  0.24274  1.0000
  H   H48       1.0  0.19110  0.60039  0.46773  1.0000
  H   H49       1.0  0.21960  0.63831  0.47624  1.0000
  H   H50       1.0  0.19287  0.58934  0.21177  1.0000
  H   H51       1.0  0.22115  0.57932  0.21548  1.0000
  H   H52       1.0  0.13510  0.57313  0.19462  1.0000
  H   H53       1.0  0.09510  0.55425  0.19023  1.0000
  H   H54       1.0  0.09307  0.54045  0.46721  1.0000
  H   H55       1.0  0.13309  0.56095  0.47146  1.0000
  H   H56       1.0  0.16133  0.54782  0.43422  1.0000
  H   H57       1.0  0.18812  0.53567  0.43294  1.0000
  N   N5        1.0  0.42614  0.58250  0.33539  1.0000
  C   C79       1.0  0.40272  0.57180  0.35515  1.0000
  C   C80       1.0  0.43781  0.57031  0.33336  1.0000
  C   C81       1.0  0.43741  0.60620  0.32149  1.0000
  C   C82       1.0  0.42945  0.61530  0.25585  1.0000
  C   C83       1.0  0.43548  0.63809  0.25849  1.0000
  C   C84       1.0  0.45034  0.65295  0.32460  1.0000
  C   C85       1.0  0.45981  0.64394  0.38478  1.0000
  C   C86       1.0  0.45319  0.62097  0.38441  1.0000
  C   C87       1.0  0.38673  0.55611  0.29519  1.0000
  C   C88       1.0  0.36384  0.54957  0.30281  1.0000
  C   C89       1.0  0.35602  0.55919  0.36777  1.0000
  C   C90       1.0  0.37229  0.57422  0.42986  1.0000
  C   C91       1.0  0.39497  0.57996  0.42522  1.0000
  C   C92       1.0  0.44027  0.56122  0.25238  1.0000
  C   C93       1.0  0.45169  0.54899  0.25018  1.0000
  C   C94       1.0  0.46159  0.54575  0.32819  1.0000
  C   C95       1.0  0.45905  0.55519  0.40900  1.0000
  C   C96       1.0  0.44721  0.56701  0.41183  1.0000
  H   H58       1.0  0.35310  0.53820  0.25720  1.0000
  H   H59       1.0  0.39183  0.55021  0.24266  1.0000
  H   H60       1.0  0.40623  0.59199  0.46778  1.0000
  H   H61       1.0  0.36832  0.58256  0.47634  1.0000
  H   H62       1.0  0.41732  0.60486  0.21171  1.0000
  H   H63       1.0  0.42733  0.64316  0.21539  1.0000
  H   H64       1.0  0.43349  0.56327  0.19461  1.0000
  H   H65       1.0  0.45238  0.54215  0.19025  1.0000
  H   H66       1.0  0.46619  0.55395  0.46721  1.0000
  H   H67       1.0  0.44569  0.57347  0.47143  1.0000
  H   H68       1.0  0.45880  0.61484  0.43431  1.0000
  H   H69       1.0  0.47095  0.65378  0.43301  1.0000
  N   N6        1.0  0.42413  0.84496  0.33534  1.0000
  C   C97       1.0  0.43483  0.83223  0.35505  1.0000
  C   C98       1.0  0.43632  0.86882  0.33333  1.0000
  C   C99       1.0  0.40043  0.83252  0.32152  1.0000
  C   C100      1.0  0.39133  0.81549  0.25579  1.0000
  C   C101      1.0  0.36855  0.79871  0.25858  1.0000
  C   C102      1.0  0.35369  0.79872  0.32469  1.0000
  C   C103      1.0  0.36270  0.81720  0.38488  1.0000
  C   C104      1.0  0.38568  0.83354  0.38453  1.0000
  C   C105      1.0  0.45052  0.83195  0.29504  1.0000
  C   C106      1.0  0.45707  0.81560  0.30268  1.0000
  C   C107      1.0  0.44746  0.79817  0.36768  1.0000
  C   C108      1.0  0.43244  0.79941  0.42983  1.0000
  C   C109      1.0  0.42669  0.81634  0.42519  1.0000
  C   C110      1.0  0.44541  0.88037  0.25235  1.0000
  C   C111      1.0  0.45764  0.90402  0.25015  1.0000
  C   C112      1.0  0.46088  0.91716  0.32817  1.0000
  C   C113      1.0  0.45144  0.90518  0.40898  1.0000
  C   C114      1.0  0.43962  0.88151  0.41181  1.0000
  H   H70       1.0  0.46843  0.81623  0.25706  1.0000
  H   H71       1.0  0.45641  0.84295  0.24250  1.0000
  H   H72       1.0  0.41468  0.81559  0.46780  1.0000
  H   H73       1.0  0.42411  0.78711  0.47636  1.0000
  H   H74       1.0  0.40176  0.81381  0.21155  1.0000
  H   H75       1.0  0.36345  0.78553  0.21526  1.0000
  H   H76       1.0  0.44336  0.87155  0.19457  1.0000
  H   H77       1.0  0.46447  0.91155  0.19023  1.0000
  H   H78       1.0  0.45267  0.91355  0.46719  1.0000
  H   H79       1.0  0.43316  0.87353  0.47139  1.0000
  H   H80       1.0  0.39182  0.84527  0.43445  1.0000
  H   H81       1.0  0.35288  0.81849  0.43318  1.0000
  N   N7        1.0  0.84669  0.42550  0.33590  1.0000
  C   C115      1.0  0.83400  0.40204  0.35545  1.0000
  C   C116      1.0  0.87059  0.43729  0.33347  1.0000
  C   C117      1.0  0.83400  0.43653  0.32176  1.0000
  C   C118      1.0  0.81702  0.42840  0.25579  1.0000
  C   C119      1.0  0.79995  0.43401  0.25833  1.0000
  C   C120      1.0  0.79961  0.44873  0.32435  1.0000
  C   C121      1.0  0.81809  0.45849  0.38451  1.0000
  C   C122      1.0  0.83466  0.45218  0.38456  1.0000
  C   C123      1.0  0.83342  0.38604  0.29473  1.0000
  C   C124      1.0  0.81697  0.36319  0.30223  1.0000
  C   C125      1.0  0.79967  0.35541  0.36775  1.0000
  C   C126      1.0  0.80123  0.37165  0.43077  1.0000
  C   C127      1.0  0.81831  0.39428  0.42630  1.0000
  C   C128      1.0  0.88215  0.43759  0.25501  1.0000
  C   C129      1.0  0.90580  0.44905  0.25267  1.0000
  C   C130      1.0  0.91903  0.46132  0.32757  1.0000
  C   C131      1.0  0.90705  0.46097  0.40574  1.0000
  C   C132      1.0  0.88339  0.44897  0.40913  1.0000
  H   H82       1.0  0.81736  0.35247  0.25586  1.0000
  H   H83       1.0  0.84418  0.39108  0.24149  1.0000
  H   H84       1.0  0.81773  0.40556  0.46936  1.0000
  H   H85       1.0  0.78905  0.36770  0.47782  1.0000
  H   H86       1.0  0.81557  0.41638  0.21157  1.0000
  H   H87       1.0  0.78683  0.42574  0.21491  1.0000
  H   H88       1.0  0.87335  0.42932  0.19897  1.0000
  H   H89       1.0  0.91323  0.44803  0.19495  1.0000
  H   H90       1.0  0.91539  0.46983  0.46153  1.0000
  H   H91       1.0  0.87552  0.44894  0.46726  1.0000
  H   H92       1.0  0.84630  0.45795  0.43477  1.0000
  H   H93       1.0  0.81919  0.46955  0.43269  1.0000
  N   N8        1.0  0.58116  0.42253  0.33600  1.0000
  C   C133      1.0  0.60462  0.43332  0.35558  1.0000
  C   C134      1.0  0.56936  0.43464  0.33355  1.0000
  C   C135      1.0  0.57014  0.39882  0.32176  1.0000
  C   C136      1.0  0.57829  0.38997  0.25583  1.0000
  C   C137      1.0  0.57268  0.36729  0.25833  1.0000
  C   C138      1.0  0.55794  0.35222  0.32425  1.0000
  C   C139      1.0  0.54819  0.36094  0.38445  1.0000
  C   C140      1.0  0.55449  0.38382  0.38451  1.0000
  C   C141      1.0  0.62062  0.44875  0.29493  1.0000
  C   C142      1.0  0.64347  0.45514  0.30237  1.0000
  C   C143      1.0  0.65125  0.44562  0.36790  1.0000
  C   C144      1.0  0.63502  0.43094  0.43090  1.0000
  C   C145      1.0  0.61237  0.42537  0.42642  1.0000
  C   C146      1.0  0.56907  0.44590  0.25510  1.0000
  C   C147      1.0  0.55761  0.45810  0.25276  1.0000
  C   C148      1.0  0.54533  0.45905  0.32764  1.0000
  C   C149      1.0  0.54568  0.44741  0.40580  1.0000
  C   C150      1.0  0.55767  0.43575  0.40920  1.0000
  H   H94       1.0  0.65419  0.46625  0.25600  1.0000
  H   H95       1.0  0.61558  0.45445  0.24159  1.0000
  H   H96       1.0  0.60110  0.41351  0.46944  1.0000
  H   H97       1.0  0.63896  0.42270  0.47793  1.0000
  H   H98       1.0  0.59032  0.40055  0.21166  1.0000
  H   H99       1.0  0.58096  0.36245  0.21492  1.0000
  H   H100      1.0  0.57735  0.44538  0.19907  1.0000
  H   H101      1.0  0.55864  0.46655  0.19503  1.0000
  H   H102      1.0  0.53680  0.44688  0.46156  1.0000
  H   H103      1.0  0.55769  0.42790  0.46731  1.0000
  H   H104      1.0  0.54871  0.38968  0.43472  1.0000
  H   H105      1.0  0.53711  0.35097  0.43256  1.0000
  N   N9        1.0  0.58413  0.15994  0.33592  1.0000
  C   C151      1.0  0.57335  0.17263  0.35549  1.0000
  C   C152      1.0  0.57202  0.13604  0.33349  1.0000
  C   C153      1.0  0.60784  0.17264  0.32174  1.0000
  C   C154      1.0  0.61669  0.18961  0.25571  1.0000
  C   C155      1.0  0.63936  0.20670  0.25833  1.0000
  C   C156      1.0  0.65442  0.20704  0.32433  1.0000
  C   C157      1.0  0.64571  0.18858  0.38453  1.0000
  C   C158      1.0  0.62283  0.17197  0.38451  1.0000
  C   C159      1.0  0.55792  0.17320  0.29481  1.0000
  C   C160      1.0  0.55154  0.18967  0.30223  1.0000
  C   C161      1.0  0.56107  0.20697  0.36777  1.0000
  C   C162      1.0  0.57573  0.20541  0.43081  1.0000
  C   C163      1.0  0.58129  0.18832  0.42634  1.0000
  C   C164      1.0  0.56076  0.12449  0.25504  1.0000
  C   C165      1.0  0.54856  0.10083  0.25271  1.0000
  C   C166      1.0  0.54760  0.08760  0.32760  1.0000
  C   C167      1.0  0.55924  0.09958  0.40575  1.0000
  C   C168      1.0  0.57090  0.12324  0.40915  1.0000
  H   H106      1.0  0.54045  0.18930  0.25583  1.0000
  H   H107      1.0  0.55223  0.16247  0.24146  1.0000
  H   H108      1.0  0.59314  0.18890  0.46938  1.0000
  H   H109      1.0  0.58398  0.21760  0.47783  1.0000
  H   H110      1.0  0.60609  0.19106  0.21165  1.0000
  H   H111      1.0  0.64421  0.21982  0.21492  1.0000
  H   H112      1.0  0.56128  0.13329  0.19900  1.0000
  H   H113      1.0  0.54011  0.09340  0.19497  1.0000
  H   H114      1.0  0.55976  0.09124  0.46154  1.0000
  H   H115      1.0  0.57874  0.13112  0.46727  1.0000
  H   H116      1.0  0.61696  0.16034  0.43475  1.0000
  H   H117      1.0  0.65568  0.18746  0.43262  1.0000
  C   C169      1.0  0.98058  0.48954  0.39800  1.0000
  C   C170      1.0  0.95683  0.47730  0.40110  1.0000
  H   H118      1.0  0.94931  0.47090  0.46143  1.0000
  C   C171      1.0  0.05190  0.53249  0.39883  1.0000
  C   C172      1.0  0.02811  0.52063  0.39589  1.0000
  H   H119      1.0  0.05957  0.54103  0.45613  1.0000
  C   C173      1.0  0.01482  0.51863  0.47773  1.0000
  C   C174      1.0  0.99375  0.49486  0.48287  1.0000
  H   H120      1.0  0.00964  0.53128  0.47464  1.0000
  H   H121      1.0  0.02473  0.52160  0.53874  1.0000
  H   H122      1.0  0.98374  0.49425  0.54087  1.0000
  H   H123      1.0  0.99892  0.48235  0.49300  1.0000
  C   C175      1.0  0.51709  0.49236  0.39807  1.0000
  C   C176      1.0  0.52934  0.48086  0.40116  1.0000
  H   H124      1.0  0.53574  0.47974  0.46150  1.0000
  C   C177      1.0  0.47414  0.52073  0.39887  1.0000
  C   C178      1.0  0.48600  0.50880  0.39594  1.0000
  H   H125      1.0  0.46560  0.51987  0.45618  1.0000
  C   C179      1.0  0.48799  0.49751  0.47778  1.0000
  C   C180      1.0  0.51177  0.50021  0.48295  1.0000
  H   H126      1.0  0.47535  0.47968  0.47471  1.0000
  H   H127      1.0  0.48503  0.50445  0.53879  1.0000
  H   H128      1.0  0.51237  0.49080  0.54092  1.0000
  H   H129      1.0  0.52428  0.51789  0.49311  1.0000
  C   C181      1.0  0.51428  0.02605  0.39804  1.0000
  C   C182      1.0  0.52578  0.04980  0.40112  1.0000
  H   H130      1.0  0.52690  0.05732  0.46145  1.0000
  C   C183      1.0  0.48589  0.95473  0.39886  1.0000
  C   C184      1.0  0.49782  0.97852  0.39594  1.0000
  H   H131      1.0  0.48675  0.94705  0.45617  1.0000
  C   C185      1.0  0.50911  0.99180  0.47777  1.0000
  C   C186      1.0  0.50642  0.01288  0.48292  1.0000
  H   H132      1.0  0.52694  0.99698  0.47471  1.0000
  H   H133      1.0  0.50216  0.98190  0.53878  1.0000
  H   H134      1.0  0.51583  0.02289  0.54090  1.0000
  H   H135      1.0  0.48875  0.00773  0.49307  1.0000
  C   C187      1.0  0.22678  0.55266  0.33449  1.0000
  C   C188      1.0  0.23343  0.54872  0.41914  1.0000
  C   C189      1.0  0.25275  0.54663  0.43150  1.0000
  C   C190      1.0  0.26719  0.54973  0.35755  1.0000
  C   C191      1.0  0.28851  0.55010  0.36413  1.0000
  C   C192      1.0  0.30200  0.55678  0.44235  1.0000
  C   C193      1.0  0.32322  0.55845  0.44473  1.0000
  C   C194      1.0  0.33318  0.55512  0.36744  1.0000
  H   H136      1.0  0.29725  0.56170  0.49854  1.0000
  H   H137      1.0  0.33152  0.56274  0.50460  1.0000
  H   H138      1.0  0.22432  0.54769  0.47484  1.0000
  N   N10       1.0  0.25659  0.54025  0.51707  1.0000
  O   O7        1.0  0.25882  0.55406  0.57711  1.0000
  O   O8        1.0  0.24110  0.52107  0.53939  1.0000
  C   C195      1.0  0.45398  0.67545  0.33448  1.0000
  C   C196      1.0  0.45794  0.68605  0.41912  1.0000
  C   C197      1.0  0.46003  0.70746  0.43146  1.0000
  C   C198      1.0  0.45692  0.71879  0.35751  1.0000
  C   C199      1.0  0.45656  0.73975  0.36408  1.0000
  C   C200      1.0  0.44993  0.74660  0.44235  1.0000
  C   C201      1.0  0.44824  0.76613  0.44469  1.0000
  C   C202      1.0  0.45154  0.77940  0.36738  1.0000
  H   H139      1.0  0.44496  0.73690  0.49849  1.0000
  H   H140      1.0  0.44394  0.77013  0.50455  1.0000
  H   H141      1.0  0.45896  0.67797  0.47482  1.0000
  N   N11       1.0  0.46643  0.71769  0.51701  1.0000
  O   O9        1.0  0.45261  0.70611  0.57707  1.0000
  O   O10       1.0  0.48560  0.72138  0.53929  1.0000
  C   C203      1.0  0.33118  0.77986  0.33456  1.0000
  C   C204      1.0  0.32060  0.77320  0.41922  1.0000
  C   C205      1.0  0.29919  0.75388  0.43158  1.0000
  C   C206      1.0  0.28785  0.73946  0.35759  1.0000
  C   C207      1.0  0.26690  0.71813  0.36413  1.0000
  C   C208      1.0  0.26008  0.70464  0.44236  1.0000
  C   C209      1.0  0.24055  0.68341  0.44471  1.0000
  C   C210      1.0  0.22727  0.67345  0.36742  1.0000
  H   H142      1.0  0.26978  0.70936  0.49846  1.0000
  H   H143      1.0  0.23656  0.67510  0.50454  1.0000
  H   H144      1.0  0.32869  0.78229  0.47493  1.0000
  N   N12       1.0  0.28898  0.75003  0.51716  1.0000
  O   O11       1.0  0.30057  0.74779  0.57714  1.0000
  O   O12       1.0  0.28530  0.76551  0.53957  1.0000
  C   C211      1.0  0.78052  0.45203  0.33405  1.0000
  C   C212      1.0  0.77390  0.45613  0.41849  1.0000
  C   C213      1.0  0.75449  0.45806  0.43071  1.0000
  C   C214      1.0  0.73988  0.45456  0.35695  1.0000
  C   C215      1.0  0.71855  0.45418  0.36346  1.0000
  C   C216      1.0  0.70522  0.44787  0.44210  1.0000
  C   C217      1.0  0.68405  0.44633  0.44465  1.0000
  C   C218      1.0  0.67400  0.44945  0.36721  1.0000
  H   H145      1.0  0.71005  0.44314  0.49859  1.0000
  H   H146      1.0  0.67588  0.44232  0.50478  1.0000
  H   H147      1.0  0.78312  0.45744  0.47417  1.0000
  N   N13       1.0  0.75074  0.46472  0.51587  1.0000
  O   O13       1.0  0.74873  0.45117  0.57675  1.0000
  O   O14       1.0  0.76616  0.48403  0.53701  1.0000
  C   C219      1.0  0.55465  0.32983  0.33395  1.0000
  C   C220      1.0  0.55053  0.31910  0.41835  1.0000
  C   C221      1.0  0.54860  0.29775  0.43056  1.0000
  C   C222      1.0  0.55213  0.28666  0.35682  1.0000
  C   C223      1.0  0.55251  0.26572  0.36334  1.0000
  C   C224      1.0  0.55879  0.25867  0.44201  1.0000
  C   C225      1.0  0.56034  0.23906  0.44453  1.0000
  C   C226      1.0  0.55726  0.22591  0.36706  1.0000
  H   H148      1.0  0.56350  0.26822  0.49855  1.0000
  H   H149      1.0  0.56432  0.23487  0.50470  1.0000
  H   H150      1.0  0.54918  0.32699  0.47403  1.0000
  N   N14       1.0  0.54192  0.28733  0.51568  1.0000
  O   O15       1.0  0.55544  0.29885  0.57664  1.0000
  O   O16       1.0  0.52260  0.28343  0.53671  1.0000
  C   C227      1.0  0.67681  0.22613  0.33401  1.0000
  C   C228      1.0  0.68754  0.23276  0.41843  1.0000
  C   C229      1.0  0.70888  0.25217  0.43065  1.0000
  C   C230      1.0  0.71999  0.26679  0.35690  1.0000
  C   C231      1.0  0.74094  0.28811  0.36340  1.0000
  C   C232      1.0  0.74798  0.30143  0.44208  1.0000
  C   C233      1.0  0.76759  0.32260  0.44457  1.0000
  C   C234      1.0  0.78075  0.33265  0.36711  1.0000
  H   H151      1.0  0.73840  0.29662  0.49853  1.0000
  H   H152      1.0  0.77175  0.33078  0.50469  1.0000
  H   H153      1.0  0.67964  0.22353  0.47412  1.0000
  N   N15       1.0  0.71930  0.25592  0.51579  1.0000
  O   O17       1.0  0.70777  0.25793  0.57670  1.0000
  O   O18       1.0  0.72319  0.24050  0.53690  1.0000
