data_image0
_chemical_formula_structural       C13H9C13H9C13H9C13H9C6H3COH3C6H3COH3C6H3COH3C2H2C4HCOH3C2H2C4HCOH3C2H2C4HCOH3C17H12C17H12C17H12C17H12C2H2C4HCOH3C2H2C4HCOH3C2H2C4HCOH3C6H3COH3C6H3COH3C6H3COH3
_chemical_formula_sum              "C204 H156 O12"
_cell_length_a       68.8669
_cell_length_b       68.8502
_cell_length_c       14.9787
_cell_angle_alpha    90
_cell_angle_beta     90
_cell_angle_gamma    120.004

_space_group_name_H-M_alt    "P 1"
_space_group_IT_number       1

loop_
  _space_group_symop_operation_xyz
  'x, y, z'

loop_
  _atom_site_type_symbol
  _atom_site_label
  _atom_site_symmetry_multiplicity
  _atom_site_fract_x
  _atom_site_fract_y
  _atom_site_fract_z
  _atom_site_occupancy
  C   C1        1.0  0.92530  0.86509  0.33038  1.0000
  C   C2        1.0  0.94794  0.91309  0.32800  1.0000
  C   C3        1.0  0.92474  0.90022  0.30955  1.0000
  C   C4        1.0  0.91361  0.87663  0.31090  1.0000
  C   C5        1.0  0.95859  0.93637  0.32365  1.0000
  C   C6        1.0  0.05479  0.02272  0.32404  1.0000
  C   C7        1.0  0.09093  0.02500  0.31019  1.0000
  C   C8        1.0  0.12606  0.06071  0.33080  1.0000
  C   C9        1.0  0.11451  0.03746  0.31148  1.0000
  C   C10       1.0  0.96852  0.03270  0.32413  1.0000
  C   C11       1.0  0.93254  0.03143  0.34623  1.0000
  C   C12       1.0  0.93043  0.06587  0.33069  1.0000
  C   C13       1.0  0.92009  0.04257  0.34790  1.0000
  H   H1        1.0  0.89674  0.86794  0.29847  1.0000
  H   H2        1.0  0.91565  0.90791  0.29532  1.0000
  H   H3        1.0  0.92434  0.01448  0.35703  1.0000
  H   H4        1.0  0.08324  0.00821  0.29607  1.0000
  H   H5        1.0  0.12319  0.02926  0.29921  1.0000
  H   H6        1.0  0.90321  0.03334  0.35964  1.0000
  H   H7        1.0  0.04817  0.01195  0.27350  1.0000
  H   H8        1.0  0.95446  0.94300  0.27308  1.0000
  H   H9        1.0  0.97937  0.03694  0.27384  1.0000
  C   C14       1.0  0.50914  0.34147  0.31835  1.0000
  C   C15       1.0  0.47682  0.29473  0.31656  1.0000
  C   C16       1.0  0.49985  0.30211  0.32702  1.0000
  C   C17       1.0  0.51571  0.32511  0.32845  1.0000
  C   C18       1.0  0.46200  0.27193  0.30959  1.0000
  C   C19       1.0  0.36435  0.18949  0.32751  1.0000
  C   C20       1.0  0.32805  0.18690  0.34114  1.0000
  C   C21       1.0  0.29330  0.15030  0.33743  1.0000
  C   C22       1.0  0.30449  0.17399  0.34387  1.0000
  C   C23       1.0  0.45392  0.17945  0.33802  1.0000
  C   C24       1.0  0.49272  0.18910  0.36001  1.0000
  C   C25       1.0  0.50355  0.16013  0.35410  1.0000
  C   C26       1.0  0.50917  0.18278  0.36490  1.0000
  H   H10       1.0  0.53224  0.32977  0.33650  1.0000
  H   H11       1.0  0.50536  0.29082  0.33287  1.0000
  H   H12       1.0  0.49760  0.20574  0.36667  1.0000
  H   H13       1.0  0.33553  0.20399  0.34604  1.0000
  H   H14       1.0  0.29558  0.18212  0.35164  1.0000
  H   H15       1.0  0.52548  0.19509  0.37435  1.0000
  H   H16       1.0  0.37066  0.20160  0.28177  1.0000
  H   H17       1.0  0.46458  0.26394  0.25960  1.0000
  H   H18       1.0  0.44490  0.17549  0.28214  1.0000
  C   C27       1.0  0.64953  0.16809  0.31841  1.0000
  C   C28       1.0  0.69628  0.18256  0.31688  1.0000
  C   C29       1.0  0.68886  0.19820  0.32718  1.0000
  C   C30       1.0  0.66587  0.19103  0.32848  1.0000
  C   C31       1.0  0.71908  0.19057  0.31006  1.0000
  C   C32       1.0  0.80148  0.17521  0.32739  1.0000
  C   C33       1.0  0.80408  0.14150  0.34065  1.0000
  C   C34       1.0  0.84068  0.14336  0.33712  1.0000
  C   C35       1.0  0.81700  0.13085  0.34336  1.0000
  C   C36       1.0  0.81160  0.27485  0.33813  1.0000
  C   C37       1.0  0.80194  0.30401  0.36003  1.0000
  C   C38       1.0  0.83091  0.34382  0.35408  1.0000
  C   C39       1.0  0.80826  0.32679  0.36485  1.0000
  H   H19       1.0  0.66119  0.20289  0.33645  1.0000
  H   H20       1.0  0.70014  0.21500  0.33301  1.0000
  H   H21       1.0  0.78531  0.29226  0.36661  1.0000
  H   H22       1.0  0.78699  0.13188  0.34542  1.0000
  H   H23       1.0  0.80887  0.11380  0.35094  1.0000
  H   H24       1.0  0.79595  0.33079  0.37420  1.0000
  H   H25       1.0  0.78938  0.16944  0.28164  1.0000
  H   H26       1.0  0.72709  0.20116  0.26013  1.0000
  H   H27       1.0  0.81550  0.26978  0.28215  1.0000
  C   C40       1.0  0.82290  0.48183  0.31867  1.0000
  C   C41       1.0  0.80836  0.51406  0.31734  1.0000
  C   C42       1.0  0.79276  0.49101  0.32777  1.0000
  C   C43       1.0  0.79996  0.47520  0.32898  1.0000
  C   C44       1.0  0.80030  0.52882  0.31047  1.0000
  C   C45       1.0  0.81582  0.62675  0.32767  1.0000
  C   C46       1.0  0.84952  0.66306  0.34125  1.0000
  C   C47       1.0  0.84767  0.69781  0.33739  1.0000
  C   C48       1.0  0.86017  0.68662  0.34392  1.0000
  C   C49       1.0  0.71614  0.53717  0.33797  1.0000
  C   C50       1.0  0.68700  0.49836  0.36012  1.0000
  C   C51       1.0  0.64720  0.48751  0.35413  1.0000
  C   C52       1.0  0.66423  0.48190  0.36501  1.0000
  H   H28       1.0  0.78812  0.45865  0.33698  1.0000
  H   H29       1.0  0.77596  0.48545  0.33371  1.0000
  H   H30       1.0  0.69875  0.49349  0.36681  1.0000
  H   H31       1.0  0.85913  0.65558  0.34626  1.0000
  H   H32       1.0  0.87721  0.69554  0.35174  1.0000
  H   H33       1.0  0.66024  0.46559  0.37451  1.0000
  H   H34       1.0  0.82160  0.62042  0.28191  1.0000
  H   H35       1.0  0.78963  0.52613  0.26073  1.0000
  H   H36       1.0  0.72121  0.54613  0.28196  1.0000
  C   C53       1.0  0.14999  0.07332  0.33133  1.0000
  C   C54       1.0  0.16263  0.07106  0.26175  1.0000
  C   C55       1.0  0.18638  0.08306  0.26138  1.0000
  C   C56       1.0  0.19785  0.09786  0.33363  1.0000
  C   C57       1.0  0.23269  0.13054  0.28798  1.0000
  C   C58       1.0  0.25618  0.14358  0.28791  1.0000
  H   H37       1.0  0.22372  0.13559  0.24946  1.0000
  H   H38       1.0  0.26359  0.15760  0.24850  1.0000
  H   H39       1.0  0.15434  0.06054  0.20946  1.0000
  C   C59       1.0  0.19792  0.07916  0.18503  1.0000
  O   O1        1.0  0.19349  0.08765  0.10499  1.0000
  H   H40       1.0  0.21604  0.08726  0.19455  1.0000
  H   H41       1.0  0.19159  0.06114  0.17846  1.0000
  H   H42       1.0  0.20083  0.08445  0.05531  1.0000
  C   C60       1.0  0.91779  0.07717  0.33115  1.0000
  C   C61       1.0  0.92017  0.09220  0.26194  1.0000
  C   C62       1.0  0.90814  0.10393  0.26152  1.0000
  C   C63       1.0  0.89318  0.10041  0.33335  1.0000
  C   C64       1.0  0.86053  0.10258  0.28740  1.0000
  C   C65       1.0  0.84746  0.11301  0.28736  1.0000
  H   H43       1.0  0.85553  0.08860  0.24871  1.0000
  H   H44       1.0  0.83349  0.10644  0.24777  1.0000
  H   H45       1.0  0.93081  0.09456  0.20996  1.0000
  C   C66       1.0  0.91217  0.11950  0.18558  1.0000
  O   O2        1.0  0.90390  0.10675  0.10506  1.0000
  H   H46       1.0  0.90400  0.12946  0.19507  1.0000
  H   H47       1.0  0.93019  0.13125  0.17974  1.0000
  H   H48       1.0  0.90718  0.11739  0.05567  1.0000
  C   C67       1.0  0.91397  0.84115  0.33096  1.0000
  C   C68       1.0  0.89911  0.82850  0.26132  1.0000
  C   C69       1.0  0.88735  0.80473  0.26101  1.0000
  C   C70       1.0  0.89067  0.79328  0.33337  1.0000
  C   C71       1.0  0.88852  0.75843  0.28786  1.0000
  C   C72       1.0  0.87807  0.73494  0.28784  1.0000
  H   H49       1.0  0.90254  0.76740  0.24937  1.0000
  H   H50       1.0  0.88469  0.72753  0.24851  1.0000
  H   H51       1.0  0.89690  0.83678  0.20896  1.0000
  C   C73       1.0  0.87196  0.79319  0.18459  1.0000
  O   O3        1.0  0.88490  0.79760  0.10465  1.0000
  H   H52       1.0  0.86193  0.77506  0.19415  1.0000
  H   H53       1.0  0.86027  0.79951  0.17785  1.0000
  H   H54       1.0  0.87438  0.79024  0.05491  1.0000
  C   C74       1.0  0.54289  0.14037  0.28145  1.0000
  C   C75       1.0  0.52351  0.14226  0.28673  1.0000
  H   H55       1.0  0.54508  0.13290  0.22622  1.0000
  H   H56       1.0  0.51236  0.13632  0.23480  1.0000
  C   C76       1.0  0.58131  0.15274  0.32664  1.0000
  C   C77       1.0  0.62630  0.16148  0.31586  1.0000
  C   C78       1.0  0.61896  0.17373  0.26375  1.0000
  C   C79       1.0  0.59684  0.17003  0.26898  1.0000
  H   H57       1.0  0.63030  0.18609  0.22282  1.0000
  C   C80       1.0  0.59031  0.18441  0.21643  1.0000
  O   O4        1.0  0.60760  0.20238  0.16551  1.0000
  H   H58       1.0  0.58293  0.19157  0.26100  1.0000
  H   H59       1.0  0.57747  0.17366  0.16850  1.0000
  H   H60       1.0  0.61798  0.21393  0.20747  1.0000
  C   C81       1.0  0.85066  0.40292  0.28120  1.0000
  C   C82       1.0  0.84875  0.38164  0.28649  1.0000
  H   H61       1.0  0.85814  0.41258  0.22597  1.0000
  H   H62       1.0  0.85473  0.37642  0.23473  1.0000
  C   C83       1.0  0.83829  0.42899  0.32636  1.0000
  C   C84       1.0  0.82952  0.46522  0.31589  1.0000
  C   C85       1.0  0.81728  0.44565  0.26369  1.0000
  C   C86       1.0  0.82100  0.42723  0.26876  1.0000
  H   H63       1.0  0.80493  0.44465  0.22275  1.0000
  C   C87       1.0  0.80663  0.40634  0.21611  1.0000
  O   O5        1.0  0.78868  0.40567  0.16519  1.0000
  H   H64       1.0  0.79947  0.39178  0.26061  1.0000
  H   H65       1.0  0.81738  0.40425  0.16816  1.0000
  H   H66       1.0  0.77712  0.40449  0.20715  1.0000
  C   C88       1.0  0.58811  0.44812  0.28141  1.0000
  C   C89       1.0  0.60938  0.46751  0.28667  1.0000
  H   H67       1.0  0.57845  0.44592  0.22617  1.0000
  H   H68       1.0  0.61459  0.47866  0.23474  1.0000
  C   C90       1.0  0.56205  0.40969  0.32666  1.0000
  C   C91       1.0  0.52579  0.36470  0.31584  1.0000
  C   C92       1.0  0.54539  0.37203  0.26382  1.0000
  C   C93       1.0  0.56382  0.39415  0.26906  1.0000
  H   H69       1.0  0.54640  0.36068  0.22292  1.0000
  C   C94       1.0  0.58473  0.40068  0.21656  1.0000
  O   O6        1.0  0.58540  0.38338  0.16570  1.0000
  H   H70       1.0  0.59926  0.40806  0.26116  1.0000
  H   H71       1.0  0.58684  0.41352  0.16861  1.0000
  H   H72       1.0  0.58656  0.37300  0.20770  1.0000
  C   C95       1.0  0.94855  0.87802  0.34856  1.0000
  C   C96       1.0  0.95973  0.90162  0.34685  1.0000
  C   C97       1.0  0.97324  0.95026  0.38494  1.0000
  C   C98       1.0  0.98334  0.97345  0.38042  1.0000
  C   C99       1.0  0.97039  0.98418  0.38102  1.0000
  C   C100      1.0  0.98073  0.00782  0.38052  1.0000
  C   C101      1.0  0.00442  0.02078  0.38119  1.0000
  C   C102      1.0  0.01771  0.01043  0.38061  1.0000
  C   C103      1.0  0.00698  0.98674  0.38111  1.0000
  C   C104      1.0  0.04089  0.02352  0.38519  1.0000
  C   C105      1.0  0.07807  0.03536  0.32845  1.0000
  C   C106      1.0  0.08954  0.05863  0.34709  1.0000
  C   C107      1.0  0.11314  0.07104  0.34886  1.0000
  C   C108      1.0  0.96764  0.01792  0.38503  1.0000
  C   C109      1.0  0.95585  0.04331  0.32849  1.0000
  C   C110      1.0  0.96621  0.06657  0.31104  1.0000
  C   C111      1.0  0.95372  0.07766  0.31228  1.0000
  H   H73       1.0  0.95772  0.87034  0.36114  1.0000
  H   H74       1.0  0.97664  0.91034  0.35840  1.0000
  H   H75       1.0  0.01650  0.97910  0.38300  1.0000
  H   H76       1.0  0.95323  0.97466  0.38282  1.0000
  H   H77       1.0  0.01206  0.03794  0.38312  1.0000
  H   H78       1.0  0.12082  0.08791  0.36122  1.0000
  H   H79       1.0  0.08082  0.06683  0.35850  1.0000
  H   H80       1.0  0.96192  0.09457  0.30059  1.0000
  H   H81       1.0  0.98303  0.07572  0.29756  1.0000
  H   H82       1.0  0.04727  0.03408  0.43639  1.0000
  H   H83       1.0  0.97740  0.94388  0.43618  1.0000
  H   H84       1.0  0.95699  0.01364  0.43595  1.0000
  C   C112      1.0  0.48596  0.33398  0.31019  1.0000
  C   C113      1.0  0.46997  0.31088  0.30881  1.0000
  C   C114      1.0  0.44730  0.25987  0.37412  1.0000
  C   C115      1.0  0.43635  0.23660  0.37531  1.0000
  C   C116      1.0  0.44893  0.22557  0.38304  1.0000
  C   C117      1.0  0.43828  0.20196  0.38770  1.0000
  C   C118      1.0  0.41463  0.18927  0.38585  1.0000
  C   C119      1.0  0.40160  0.19990  0.37904  1.0000
  C   C120      1.0  0.41271  0.22364  0.37498  1.0000
  C   C121      1.0  0.37834  0.18694  0.38262  1.0000
  C   C122      1.0  0.34117  0.17648  0.33245  1.0000
  C   C123      1.0  0.33012  0.15285  0.32543  1.0000
  C   C124      1.0  0.30657  0.13999  0.32819  1.0000
  C   C125      1.0  0.45135  0.19210  0.40013  1.0000
  C   C126      1.0  0.46997  0.17292  0.34510  1.0000
  C   C127      1.0  0.46430  0.15035  0.33211  1.0000
  C   C128      1.0  0.48087  0.14404  0.33648  1.0000
  H   H85       1.0  0.48058  0.34529  0.30174  1.0000
  H   H86       1.0  0.45340  0.30595  0.29989  1.0000
  H   H87       1.0  0.40352  0.23162  0.37266  1.0000
  H   H88       1.0  0.46610  0.23490  0.38621  1.0000
  H   H89       1.0  0.40685  0.17215  0.39122  1.0000
  H   H90       1.0  0.29917  0.12296  0.32113  1.0000
  H   H91       1.0  0.33913  0.14481  0.31716  1.0000
  H   H92       1.0  0.47620  0.12754  0.32764  1.0000
  H   H93       1.0  0.44804  0.13829  0.31965  1.0000
  H   H94       1.0  0.37182  0.17478  0.42823  1.0000
  H   H95       1.0  0.44557  0.26756  0.42719  1.0000
  H   H96       1.0  0.46100  0.19669  0.45443  1.0000
  C   C129      1.0  0.65705  0.15241  0.31034  1.0000
  C   C130      1.0  0.68015  0.15955  0.30907  1.0000
  C   C131      1.0  0.73114  0.18783  0.37429  1.0000
  C   C132      1.0  0.75440  0.20013  0.37549  1.0000
  C   C133      1.0  0.76545  0.22374  0.38322  1.0000
  C   C134      1.0  0.78905  0.23669  0.38785  1.0000
  C   C135      1.0  0.80172  0.22571  0.38595  1.0000
  C   C136      1.0  0.79108  0.20206  0.37914  1.0000
  C   C137      1.0  0.76734  0.18943  0.37506  1.0000
  C   C138      1.0  0.80403  0.19174  0.38262  1.0000
  C   C139      1.0  0.81449  0.16504  0.33221  1.0000
  C   C140      1.0  0.83812  0.17764  0.32540  1.0000
  C   C141      1.0  0.85098  0.16695  0.32807  1.0000
  C   C142      1.0  0.79891  0.25963  0.40016  1.0000
  C   C143      1.0  0.81812  0.29744  0.34516  1.0000
  C   C144      1.0  0.84070  0.31434  0.33224  1.0000
  C   C145      1.0  0.84700  0.33722  0.33654  1.0000
  H   H97       1.0  0.64576  0.13572  0.30203  1.0000
  H   H98       1.0  0.68510  0.14791  0.30037  1.0000
  H   H99       1.0  0.75936  0.17226  0.37274  1.0000
  H   H100      1.0  0.75613  0.23160  0.38644  1.0000
  H   H101      1.0  0.81885  0.23505  0.39122  1.0000
  H   H102      1.0  0.86801  0.17660  0.32124  1.0000
  H   H103      1.0  0.84615  0.19468  0.31733  1.0000
  H   H104      1.0  0.86350  0.34906  0.32772  1.0000
  H   H105      1.0  0.85275  0.31014  0.31982  1.0000
  H   H106      1.0  0.81618  0.19735  0.42822  1.0000
  H   H107      1.0  0.72344  0.17833  0.42721  1.0000
  H   H108      1.0  0.79440  0.26472  0.45457  1.0000
  C   C146      1.0  0.83854  0.50504  0.31054  1.0000
  C   C147      1.0  0.83137  0.52098  0.30936  1.0000
  C   C148      1.0  0.80310  0.54371  0.37439  1.0000
  C   C149      1.0  0.79082  0.55470  0.37547  1.0000
  C   C150      1.0  0.76721  0.54215  0.38317  1.0000
  C   C151      1.0  0.75428  0.55283  0.38777  1.0000
  C   C152      1.0  0.76528  0.57649  0.38591  1.0000
  C   C153      1.0  0.78893  0.58949  0.37917  1.0000
  C   C154      1.0  0.80154  0.57835  0.37515  1.0000
  C   C155      1.0  0.79927  0.61276  0.38278  1.0000
  C   C156      1.0  0.82599  0.64993  0.33253  1.0000
  C   C157      1.0  0.81340  0.66097  0.32539  1.0000
  C   C158      1.0  0.82409  0.68453  0.32810  1.0000
  C   C159      1.0  0.73135  0.53977  0.40014  1.0000
  C   C160      1.0  0.69356  0.52111  0.34509  1.0000
  C   C161      1.0  0.67665  0.52676  0.33201  1.0000
  C   C162      1.0  0.65378  0.51018  0.33638  1.0000
  H   H109      1.0  0.85523  0.51046  0.30193  1.0000
  H   H110      1.0  0.84297  0.53757  0.30041  1.0000
  H   H111      1.0  0.81870  0.58752  0.37289  1.0000
  H   H112      1.0  0.75934  0.52497  0.38638  1.0000
  H   H113      1.0  0.75596  0.58429  0.39124  1.0000
  H   H114      1.0  0.81446  0.69191  0.32095  1.0000
  H   H115      1.0  0.79637  0.65195  0.31709  1.0000
  H   H116      1.0  0.64194  0.51484  0.32745  1.0000
  H   H117      1.0  0.68085  0.54302  0.31943  1.0000
  H   H118      1.0  0.79364  0.61929  0.42833  1.0000
  H   H119      1.0  0.81275  0.54568  0.42696  1.0000
  H   H120      1.0  0.72628  0.53018  0.45461  1.0000
  C   C163      1.0  0.18534  0.10039  0.40283  1.0000
  C   C164      1.0  0.16179  0.08830  0.40169  1.0000
  H   H121      1.0  0.19330  0.11100  0.45522  1.0000
  H   H122      1.0  0.15333  0.09023  0.45392  1.0000
  C   C165      1.0  0.22163  0.11065  0.33889  1.0000
  C   C166      1.0  0.26936  0.13720  0.33881  1.0000
  C   C167      1.0  0.25812  0.11730  0.39006  1.0000
  C   C168      1.0  0.23443  0.10371  0.39076  1.0000
  H   H123      1.0  0.26751  0.11284  0.42871  1.0000
  C   C169      1.0  0.22315  0.08262  0.44485  1.0000
  O   O7        1.0  0.23744  0.07616  0.48973  1.0000
  H   H124      1.0  0.21159  0.06866  0.40232  1.0000
  H   H125      1.0  0.21325  0.08479  0.49666  1.0000
  H   H126      1.0  0.24448  0.07133  0.44431  1.0000
  C   C170      1.0  0.89053  0.08524  0.40217  1.0000
  C   C171      1.0  0.90264  0.07380  0.40105  1.0000
  H   H127      1.0  0.87980  0.08246  0.45427  1.0000
  H   H128      1.0  0.90062  0.06330  0.45304  1.0000
  C   C172      1.0  0.88037  0.11139  0.33859  1.0000
  C   C173      1.0  0.85379  0.13253  0.33851  1.0000
  C   C174      1.0  0.87365  0.14117  0.39001  1.0000
  C   C175      1.0  0.88724  0.13108  0.39075  1.0000
  H   H129      1.0  0.87805  0.15497  0.42888  1.0000
  C   C176      1.0  0.90826  0.14083  0.44519  1.0000
  O   O8        1.0  0.91465  0.16152  0.49046  1.0000
  H   H130      1.0  0.92228  0.14330  0.40283  1.0000
  H   H131      1.0  0.90606  0.12870  0.49680  1.0000
  H   H132      1.0  0.91952  0.17346  0.44527  1.0000
  C   C177      1.0  0.90567  0.80580  0.40264  1.0000
  C   C178      1.0  0.91713  0.82936  0.40144  1.0000
  H   H133      1.0  0.90830  0.79785  0.45510  1.0000
  H   H134      1.0  0.92751  0.83783  0.45372  1.0000
  C   C179      1.0  0.87967  0.76949  0.33868  1.0000
  C   C180      1.0  0.85850  0.72175  0.33871  1.0000
  C   C181      1.0  0.84983  0.73299  0.38987  1.0000
  C   C182      1.0  0.85992  0.75669  0.39051  1.0000
  H   H135      1.0  0.83598  0.72360  0.42850  1.0000
  C   C183      1.0  0.85011  0.76797  0.44450  1.0000
  O   O9        1.0  0.82935  0.75367  0.48934  1.0000
  H   H136      1.0  0.84771  0.77952  0.40192  1.0000
  H   H137      1.0  0.86216  0.77788  0.49634  1.0000
  H   H138      1.0  0.81749  0.74662  0.44388  1.0000
  C   C184      1.0  0.52079  0.15439  0.35689  1.0000
  C   C185      1.0  0.53723  0.16306  0.42491  1.0000
  C   C186      1.0  0.55700  0.16162  0.42062  1.0000
  C   C187      1.0  0.56007  0.15053  0.34615  1.0000
  C   C188      1.0  0.58813  0.13949  0.37475  1.0000
  C   C189      1.0  0.61034  0.14382  0.36946  1.0000
  H   H139      1.0  0.57732  0.12745  0.41825  1.0000
  H   H140      1.0  0.61509  0.13490  0.40961  1.0000
  H   H141      1.0  0.53535  0.17175  0.47659  1.0000
  C   C190      1.0  0.57393  0.17317  0.49264  1.0000
  O   O10       1.0  0.56473  0.16215  0.57589  1.0000
  H   H142      1.0  0.58956  0.17319  0.48068  1.0000
  H   H143      1.0  0.57805  0.19070  0.49639  1.0000
  H   H144      1.0  0.57590  0.17036  0.62274  1.0000
  C   C191      1.0  0.83664  0.36680  0.35674  1.0000
  C   C192      1.0  0.82797  0.37458  0.42472  1.0000
  C   C193      1.0  0.82942  0.39580  0.42037  1.0000
  C   C194      1.0  0.84049  0.40994  0.34582  1.0000
  C   C195      1.0  0.85155  0.44904  0.37450  1.0000
  C   C196      1.0  0.84717  0.46691  0.36949  1.0000
  H   H145      1.0  0.86355  0.45025  0.41815  1.0000
  H   H146      1.0  0.85610  0.48057  0.40970  1.0000
  H   H147      1.0  0.81929  0.36403  0.47644  1.0000
  C   C197      1.0  0.81785  0.40118  0.49232  1.0000
  O   O11       1.0  0.82885  0.40301  0.57561  1.0000
  H   H148      1.0  0.81781  0.41678  0.48029  1.0000
  H   H149      1.0  0.80032  0.38775  0.49604  1.0000
  H   H150      1.0  0.82063  0.40597  0.62241  1.0000
  C   C198      1.0  0.62423  0.47024  0.35686  1.0000
  C   C199      1.0  0.61645  0.45381  0.42493  1.0000
  C   C200      1.0  0.59524  0.43403  0.42064  1.0000
  C   C201      1.0  0.58109  0.43095  0.34613  1.0000
  C   C202      1.0  0.54199  0.40289  0.37472  1.0000
  C   C203      1.0  0.52410  0.38067  0.36941  1.0000
  H   H151      1.0  0.54075  0.41370  0.41817  1.0000
  H   H152      1.0  0.51042  0.37593  0.40950  1.0000
  H   H153      1.0  0.62701  0.45570  0.47664  1.0000
  C   C204      1.0  0.58986  0.41711  0.49270  1.0000
  O   O12       1.0  0.58804  0.42632  0.57592  1.0000
  H   H154      1.0  0.57425  0.40147  0.48074  1.0000
  H   H155      1.0  0.60327  0.41299  0.49649  1.0000
  H   H156      1.0  0.58508  0.41515  0.62279  1.0000
