data_image0
_chemical_formula_structural       C4HC2O2CNC3H3ONHCNC3H3ONHC6HC5HCH3C2O2NC2HNHNC2HNHC4HC2O2CNC3H3ONHCNC3H3ONHC6HC5HCH3C2O2NC2HNHNC2HNHC4HC2O2CNC3H3ONHCNC3H3ONHC6HC5HCH3C2O2NC2HNHNC2HNHC4HC2O2CNC3H3ONHCNC3H3ONHC6HC5HCH3C2O2NC2HNHNC2HNH
_chemical_formula_sum              "C128 H72 O24 N32"
_cell_length_a       30.5066
_cell_length_b       30.5066
_cell_length_c       15.004
_cell_angle_alpha    90
_cell_angle_beta     90
_cell_angle_gamma    90

_space_group_name_H-M_alt    "P 1"
_space_group_IT_number       1

loop_
  _space_group_symop_operation_xyz
  'x, y, z'

loop_
  _atom_site_type_symbol
  _atom_site_label
  _atom_site_symmetry_multiplicity
  _atom_site_fract_x
  _atom_site_fract_y
  _atom_site_fract_z
  _atom_site_occupancy
  C   C1        1.0  0.46716  0.09004  0.25501  1.0000
  C   C2        1.0  0.49708  0.05982  0.29462  1.0000
  C   C3        1.0  0.00201  0.44071  0.36612  1.0000
  C   C4        1.0  0.03208  0.41033  0.40473  1.0000
  H   H1        1.0  0.44627  0.39860  0.36466  1.0000
  C   C5        1.0  0.47442  0.13601  0.24732  1.0000
  C   C6        1.0  0.02529  0.36421  0.40947  1.0000
  O   O1        1.0  0.45421  0.15753  0.17956  1.0000
  O   O2        1.0  0.04587  0.34181  0.47557  1.0000
  C   C7        1.0  0.00426  0.29670  0.33057  1.0000
  N   N1        1.0  0.98660  0.23139  0.25010  1.0000
  C   C8        1.0  0.98970  0.27587  0.25097  1.0000
  C   C9        1.0  0.97869  0.29809  0.17370  1.0000
  C   C10       1.0  0.01276  0.31414  0.11468  1.0000
  H   H2        1.0  0.50338  0.34628  0.08924  1.0000
  H   H3        1.0  0.01704  0.29180  0.05846  1.0000
  H   H4        1.0  0.04430  0.31757  0.14867  1.0000
  O   O3        1.0  0.94313  0.28995  0.13976  1.0000
  N   N2        1.0  0.00839  0.34118  0.33909  1.0000
  H   H5        1.0  0.00093  0.35835  0.28668  1.0000
  C   C11       1.0  0.20307  0.99546  0.33043  1.0000
  N   N3        1.0  0.26840  0.01312  0.25004  1.0000
  C   C12       1.0  0.22393  0.00998  0.25085  1.0000
  C   C13       1.0  0.20187  0.02079  0.17329  1.0000
  C   C14       1.0  0.18502  0.98701  0.11462  1.0000
  H   H6        1.0  0.18292  0.45513  0.14768  1.0000
  H   H7        1.0  0.20617  0.98362  0.05625  1.0000
  H   H8        1.0  0.15222  0.99609  0.09251  1.0000
  O   O4        1.0  0.20925  0.05680  0.14063  1.0000
  N   N4        1.0  0.15859  0.99130  0.33889  1.0000
  H   H9        1.0  0.14143  0.99871  0.28645  1.0000
  C   C15       1.0  0.48407  0.01571  0.31250  1.0000
  C   C16       1.0  0.43997  0.00273  0.29465  1.0000
  C   C17       1.0  0.40976  0.03263  0.25496  1.0000
  C   C18       1.0  0.42554  0.07426  0.22880  1.0000
  C   C19       1.0  0.42834  0.45867  0.31164  1.0000
  C   C20       1.0  0.04115  0.07142  0.31156  1.0000
  H   H10       1.0  0.40338  0.09647  0.20440  1.0000
  C   C21       1.0  0.01491  0.48486  0.34867  1.0000
  C   C22       1.0  0.07378  0.42597  0.43072  1.0000
  C   C23       1.0  0.08946  0.46763  0.40455  1.0000
  C   C24       1.0  0.05908  0.49773  0.36602  1.0000
  C   C25       1.0  0.45797  0.42905  0.34919  1.0000
  H   H11       1.0  0.09613  0.40365  0.45400  1.0000
  C   C26       1.0  0.07077  0.04177  0.34906  1.0000
  H   H12       1.0  0.39800  0.44686  0.29576  1.0000
  H   H13       1.0  0.10123  0.05343  0.36444  1.0000
  H   H14       1.0  0.05298  0.10174  0.29564  1.0000
  C   C27       1.0  0.36378  0.02545  0.24740  1.0000
  C   C28       1.0  0.13559  0.47443  0.40933  1.0000
  O   O5        1.0  0.34219  0.04572  0.17982  1.0000
  O   O6        1.0  0.15794  0.45392  0.47557  1.0000
  N   N5        1.0  0.01408  0.26967  0.40001  1.0000
  C   C29       1.0  0.01106  0.22542  0.39811  1.0000
  C   C30       1.0  0.99631  0.20453  0.31972  1.0000
  H   H15       1.0  0.01902  0.20794  0.45391  1.0000
  N   N6        1.0  0.99181  0.16006  0.31566  1.0000
  H   H16       1.0  0.99902  0.14414  0.37009  1.0000
  N   N7        1.0  0.23008  0.98572  0.39997  1.0000
  C   C31       1.0  0.27433  0.98879  0.39814  1.0000
  C   C32       1.0  0.29523  0.00351  0.31975  1.0000
  H   H17       1.0  0.29179  0.98089  0.45400  1.0000
  N   N8        1.0  0.33971  0.00804  0.31570  1.0000
  H   H18       1.0  0.35561  0.00082  0.37014  1.0000
  C   C33       1.0  0.46716  0.59004  0.25501  1.0000
  C   C34       1.0  0.49708  0.55982  0.29462  1.0000
  C   C35       1.0  0.00201  0.94071  0.36612  1.0000
  C   C36       1.0  0.03208  0.91033  0.40473  1.0000
  H   H19       1.0  0.44627  0.89860  0.36466  1.0000
  C   C37       1.0  0.47442  0.63601  0.24732  1.0000
  C   C38       1.0  0.02529  0.86421  0.40947  1.0000
  O   O7        1.0  0.45421  0.65753  0.17956  1.0000
  O   O8        1.0  0.04587  0.84182  0.47557  1.0000
  C   C39       1.0  0.00426  0.79670  0.33057  1.0000
  N   N9        1.0  0.98660  0.73139  0.25010  1.0000
  C   C40       1.0  0.98970  0.77587  0.25097  1.0000
  C   C41       1.0  0.97869  0.79809  0.17370  1.0000
  C   C42       1.0  0.01276  0.81414  0.11468  1.0000
  H   H20       1.0  0.50338  0.84628  0.08924  1.0000
  H   H21       1.0  0.01704  0.79180  0.05846  1.0000
  H   H22       1.0  0.04430  0.81757  0.14867  1.0000
  O   O9        1.0  0.94313  0.78995  0.13976  1.0000
  N   N10       1.0  0.00839  0.84118  0.33909  1.0000
  H   H23       1.0  0.00093  0.85835  0.28668  1.0000
  C   C43       1.0  0.20307  0.49545  0.33043  1.0000
  N   N11       1.0  0.26840  0.51312  0.25004  1.0000
  C   C44       1.0  0.22393  0.50998  0.25085  1.0000
  C   C45       1.0  0.20187  0.52079  0.17329  1.0000
  C   C46       1.0  0.18502  0.48701  0.11462  1.0000
  H   H24       1.0  0.18292  0.95513  0.14768  1.0000
  H   H25       1.0  0.20617  0.48363  0.05625  1.0000
  H   H26       1.0  0.15222  0.49609  0.09251  1.0000
  O   O10       1.0  0.20925  0.55680  0.14063  1.0000
  N   N12       1.0  0.15859  0.49130  0.33889  1.0000
  H   H27       1.0  0.14143  0.49871  0.28645  1.0000
  C   C47       1.0  0.48407  0.51571  0.31250  1.0000
  C   C48       1.0  0.43997  0.50273  0.29465  1.0000
  C   C49       1.0  0.40976  0.53263  0.25496  1.0000
  C   C50       1.0  0.42554  0.57426  0.22880  1.0000
  C   C51       1.0  0.42834  0.95867  0.31164  1.0000
  C   C52       1.0  0.04115  0.57142  0.31156  1.0000
  H   H28       1.0  0.40338  0.59647  0.20440  1.0000
  C   C53       1.0  0.01491  0.98486  0.34867  1.0000
  C   C54       1.0  0.07378  0.92597  0.43072  1.0000
  C   C55       1.0  0.08946  0.96763  0.40455  1.0000
  C   C56       1.0  0.05908  0.99773  0.36602  1.0000
  C   C57       1.0  0.45797  0.92905  0.34919  1.0000
  H   H29       1.0  0.09613  0.90365  0.45400  1.0000
  C   C58       1.0  0.07077  0.54177  0.34906  1.0000
  H   H30       1.0  0.39800  0.94686  0.29576  1.0000
  H   H31       1.0  0.10123  0.55343  0.36444  1.0000
  H   H32       1.0  0.05298  0.60174  0.29564  1.0000
  C   C59       1.0  0.36378  0.52545  0.24740  1.0000
  C   C60       1.0  0.13559  0.97443  0.40933  1.0000
  O   O11       1.0  0.34219  0.54572  0.17982  1.0000
  O   O12       1.0  0.15794  0.95392  0.47557  1.0000
  N   N13       1.0  0.01408  0.76967  0.40001  1.0000
  C   C61       1.0  0.01106  0.72542  0.39811  1.0000
  C   C62       1.0  0.99631  0.70454  0.31972  1.0000
  H   H33       1.0  0.01902  0.70794  0.45391  1.0000
  N   N14       1.0  0.99181  0.66006  0.31566  1.0000
  H   H34       1.0  0.99902  0.64414  0.37009  1.0000
  N   N15       1.0  0.23008  0.48572  0.39997  1.0000
  C   C63       1.0  0.27433  0.48879  0.39814  1.0000
  C   C64       1.0  0.29523  0.50351  0.31975  1.0000
  H   H35       1.0  0.29179  0.48089  0.45400  1.0000
  N   N16       1.0  0.33971  0.50804  0.31570  1.0000
  H   H36       1.0  0.35561  0.50082  0.37014  1.0000
  C   C65       1.0  0.96716  0.09004  0.25501  1.0000
  C   C66       1.0  0.99708  0.05982  0.29462  1.0000
  C   C67       1.0  0.50201  0.44071  0.36612  1.0000
  C   C68       1.0  0.53208  0.41033  0.40473  1.0000
  H   H37       1.0  0.94628  0.39860  0.36466  1.0000
  C   C69       1.0  0.97442  0.13601  0.24732  1.0000
  C   C70       1.0  0.52529  0.36421  0.40947  1.0000
  O   O13       1.0  0.95421  0.15753  0.17956  1.0000
  O   O14       1.0  0.54587  0.34181  0.47557  1.0000
  C   C71       1.0  0.50426  0.29670  0.33057  1.0000
  N   N17       1.0  0.48660  0.23139  0.25010  1.0000
  C   C72       1.0  0.48970  0.27587  0.25097  1.0000
  C   C73       1.0  0.47869  0.29809  0.17370  1.0000
  C   C74       1.0  0.51276  0.31414  0.11468  1.0000
  H   H38       1.0  0.00338  0.34628  0.08924  1.0000
  H   H39       1.0  0.51704  0.29180  0.05846  1.0000
  H   H40       1.0  0.54431  0.31757  0.14867  1.0000
  O   O15       1.0  0.44313  0.28995  0.13976  1.0000
  N   N18       1.0  0.50839  0.34118  0.33909  1.0000
  H   H41       1.0  0.50093  0.35835  0.28668  1.0000
  C   C75       1.0  0.70307  0.99546  0.33043  1.0000
  N   N19       1.0  0.76840  0.01312  0.25004  1.0000
  C   C76       1.0  0.72393  0.00998  0.25085  1.0000
  C   C77       1.0  0.70187  0.02079  0.17329  1.0000
  C   C78       1.0  0.68502  0.98701  0.11462  1.0000
  H   H42       1.0  0.68292  0.45513  0.14768  1.0000
  H   H43       1.0  0.70617  0.98362  0.05625  1.0000
  H   H44       1.0  0.65222  0.99609  0.09251  1.0000
  O   O16       1.0  0.70926  0.05680  0.14063  1.0000
  N   N20       1.0  0.65859  0.99130  0.33889  1.0000
  H   H45       1.0  0.64143  0.99871  0.28645  1.0000
  C   C79       1.0  0.98408  0.01571  0.31250  1.0000
  C   C80       1.0  0.93997  0.00273  0.29465  1.0000
  C   C81       1.0  0.90976  0.03263  0.25496  1.0000
  C   C82       1.0  0.92554  0.07426  0.22880  1.0000
  C   C83       1.0  0.92834  0.45867  0.31164  1.0000
  C   C84       1.0  0.54115  0.07142  0.31156  1.0000
  H   H46       1.0  0.90338  0.09647  0.20440  1.0000
  C   C85       1.0  0.51491  0.48486  0.34867  1.0000
  C   C86       1.0  0.57378  0.42597  0.43072  1.0000
  C   C87       1.0  0.58946  0.46763  0.40455  1.0000
  C   C88       1.0  0.55909  0.49773  0.36602  1.0000
  C   C89       1.0  0.95796  0.42905  0.34919  1.0000
  H   H47       1.0  0.59614  0.40365  0.45400  1.0000
  C   C90       1.0  0.57077  0.04177  0.34906  1.0000
  H   H48       1.0  0.89800  0.44686  0.29576  1.0000
  H   H49       1.0  0.60123  0.05343  0.36444  1.0000
  H   H50       1.0  0.55298  0.10174  0.29564  1.0000
  C   C91       1.0  0.86379  0.02545  0.24740  1.0000
  C   C92       1.0  0.63559  0.47443  0.40933  1.0000
  O   O17       1.0  0.84219  0.04572  0.17982  1.0000
  O   O18       1.0  0.65794  0.45392  0.47557  1.0000
  N   N21       1.0  0.51408  0.26967  0.40001  1.0000
  C   C93       1.0  0.51106  0.22542  0.39811  1.0000
  C   C94       1.0  0.49631  0.20453  0.31972  1.0000
  H   H51       1.0  0.51902  0.20794  0.45391  1.0000
  N   N22       1.0  0.49181  0.16006  0.31566  1.0000
  H   H52       1.0  0.49902  0.14414  0.37009  1.0000
  N   N23       1.0  0.73008  0.98572  0.39997  1.0000
  C   C95       1.0  0.77433  0.98879  0.39814  1.0000
  C   C96       1.0  0.79523  0.00351  0.31975  1.0000
  H   H53       1.0  0.79179  0.98089  0.45400  1.0000
  N   N24       1.0  0.83971  0.00804  0.31570  1.0000
  H   H54       1.0  0.85561  0.00082  0.37014  1.0000
  C   C97       1.0  0.96716  0.59004  0.25501  1.0000
  C   C98       1.0  0.99708  0.55982  0.29462  1.0000
  C   C99       1.0  0.50201  0.94071  0.36612  1.0000
  C   C100      1.0  0.53208  0.91033  0.40473  1.0000
  H   H55       1.0  0.94628  0.89860  0.36466  1.0000
  C   C101      1.0  0.97442  0.63601  0.24732  1.0000
  C   C102      1.0  0.52529  0.86421  0.40947  1.0000
  O   O19       1.0  0.95421  0.65753  0.17956  1.0000
  O   O20       1.0  0.54587  0.84182  0.47557  1.0000
  C   C103      1.0  0.50426  0.79670  0.33057  1.0000
  N   N25       1.0  0.48660  0.73139  0.25010  1.0000
  C   C104      1.0  0.48970  0.77587  0.25097  1.0000
  C   C105      1.0  0.47869  0.79809  0.17370  1.0000
  C   C106      1.0  0.51276  0.81414  0.11468  1.0000
  H   H56       1.0  0.00338  0.84628  0.08924  1.0000
  H   H57       1.0  0.51704  0.79180  0.05846  1.0000
  H   H58       1.0  0.54431  0.81757  0.14867  1.0000
  O   O21       1.0  0.44313  0.78995  0.13976  1.0000
  N   N26       1.0  0.50839  0.84118  0.33909  1.0000
  H   H59       1.0  0.50093  0.85835  0.28668  1.0000
  C   C107      1.0  0.70307  0.49545  0.33043  1.0000
  N   N27       1.0  0.76840  0.51312  0.25004  1.0000
  C   C108      1.0  0.72393  0.50998  0.25085  1.0000
  C   C109      1.0  0.70187  0.52079  0.17329  1.0000
  C   C110      1.0  0.68502  0.48701  0.11462  1.0000
  H   H60       1.0  0.68292  0.95513  0.14768  1.0000
  H   H61       1.0  0.70617  0.48363  0.05625  1.0000
  H   H62       1.0  0.65222  0.49609  0.09251  1.0000
  O   O22       1.0  0.70926  0.55680  0.14063  1.0000
  N   N28       1.0  0.65859  0.49130  0.33889  1.0000
  H   H63       1.0  0.64143  0.49871  0.28645  1.0000
  C   C111      1.0  0.98408  0.51571  0.31250  1.0000
  C   C112      1.0  0.93997  0.50273  0.29465  1.0000
  C   C113      1.0  0.90976  0.53263  0.25496  1.0000
  C   C114      1.0  0.92554  0.57426  0.22880  1.0000
  C   C115      1.0  0.92834  0.95867  0.31164  1.0000
  C   C116      1.0  0.54115  0.57142  0.31156  1.0000
  H   H64       1.0  0.90338  0.59647  0.20440  1.0000
  C   C117      1.0  0.51491  0.98486  0.34867  1.0000
  C   C118      1.0  0.57378  0.92597  0.43072  1.0000
  C   C119      1.0  0.58946  0.96763  0.40455  1.0000
  C   C120      1.0  0.55909  0.99773  0.36602  1.0000
  C   C121      1.0  0.95796  0.92905  0.34919  1.0000
  H   H65       1.0  0.59614  0.90365  0.45400  1.0000
  C   C122      1.0  0.57077  0.54177  0.34906  1.0000
  H   H66       1.0  0.89800  0.94686  0.29576  1.0000
  H   H67       1.0  0.60123  0.55343  0.36444  1.0000
  H   H68       1.0  0.55298  0.60174  0.29564  1.0000
  C   C123      1.0  0.86379  0.52545  0.24740  1.0000
  C   C124      1.0  0.63559  0.97443  0.40933  1.0000
  O   O23       1.0  0.84219  0.54572  0.17982  1.0000
  O   O24       1.0  0.65794  0.95392  0.47557  1.0000
  N   N29       1.0  0.51408  0.76967  0.40001  1.0000
  C   C125      1.0  0.51106  0.72542  0.39811  1.0000
  C   C126      1.0  0.49631  0.70454  0.31972  1.0000
  H   H69       1.0  0.51902  0.70794  0.45391  1.0000
  N   N30       1.0  0.49181  0.66006  0.31566  1.0000
  H   H70       1.0  0.49902  0.64414  0.37009  1.0000
  N   N31       1.0  0.73008  0.48572  0.39997  1.0000
  C   C127      1.0  0.77433  0.48879  0.39814  1.0000
  C   C128      1.0  0.79523  0.50351  0.31975  1.0000
  H   H71       1.0  0.79179  0.48089  0.45400  1.0000
  N   N32       1.0  0.83971  0.50804  0.31570  1.0000
  H   H72       1.0  0.85561  0.50082  0.37014  1.0000
