data_image0
_chemical_formula_structural       C3H2C2HCH3CHC4N2O4NHC4N2O4NHC3HC4H3CHCH2C2H2NHC2H2NHC3H2C2HCH3CHC4N2O4NHC4N2O4NHC3HC4H3CHCH2C2H2NHC2H2NHC3H2C2HCH3CHC4N2O4NHC4N2O4NHC3HC4H3CHCH2C2H2NHC2H2NHC3H2C2HCH3CHC4N2O4NHC4N2O4NHC3HC4H3CHCH2C2H2NHC2H2NH
_chemical_formula_sum              "C112 H88 N32 O32"
_cell_length_a       30.2688
_cell_length_b       30.2688
_cell_length_c       14.967
_cell_angle_alpha    90
_cell_angle_beta     90
_cell_angle_gamma    90

_space_group_name_H-M_alt    "P 1"
_space_group_IT_number       1

loop_
  _space_group_symop_operation_xyz
  'x, y, z'

loop_
  _atom_site_type_symbol
  _atom_site_label
  _atom_site_symmetry_multiplicity
  _atom_site_fract_x
  _atom_site_fract_y
  _atom_site_fract_z
  _atom_site_occupancy
  C   C1        1.0  0.02007  0.48250  0.33702  1.0000
  C   C2        1.0  0.06579  0.48892  0.32092  1.0000
  C   C3        1.0  0.09744  0.45669  0.34552  1.0000
  H   H1        1.0  0.07601  0.01741  0.29060  1.0000
  H   H2        1.0  0.10485  0.39399  0.40528  1.0000
  C   C4        1.0  0.41642  0.03641  0.24845  1.0000
  C   C5        1.0  0.44942  0.00460  0.26672  1.0000
  H   H3        1.0  0.44510  0.47294  0.24420  1.0000
  C   C6        1.0  0.37556  0.02440  0.19857  1.0000
  H   H4        1.0  0.38489  0.01098  0.13337  1.0000
  H   H5        1.0  0.43719  0.15783  0.34430  1.0000
  H   H6        1.0  0.05067  0.34849  0.46800  1.0000
  C   C7        1.0  0.14615  0.46170  0.33373  1.0000
  H   H7        1.0  0.15726  0.43365  0.29338  1.0000
  C   C8        1.0  0.99611  0.29968  0.38221  1.0000
  C   C9        1.0  0.00554  0.20764  0.34887  1.0000
  C   C10       1.0  0.00262  0.23786  0.27620  1.0000
  C   C11       1.0  0.99837  0.28402  0.29289  1.0000
  N   N1        1.0  0.00285  0.22038  0.18833  1.0000
  N   N2        1.0  0.99553  0.31290  0.21855  1.0000
  O   O1        1.0  0.96744  0.22810  0.14736  1.0000
  O   O2        1.0  0.02657  0.34048  0.21761  1.0000
  O   O3        1.0  0.03497  0.23422  0.14311  1.0000
  O   O4        1.0  0.95928  0.33309  0.21586  1.0000
  N   N3        1.0  0.00733  0.16073  0.33810  1.0000
  H   H8        1.0  0.01603  0.15199  0.27430  1.0000
  C   C12       1.0  0.20970  0.00274  0.27778  1.0000
  C   C13       1.0  0.30271  0.99676  0.25400  1.0000
  C   C14       1.0  0.27424  0.99429  0.17876  1.0000
  C   C15       1.0  0.22762  0.99779  0.19050  1.0000
  N   N4        1.0  0.29421  0.98785  0.09423  1.0000
  N   N5        1.0  0.20052  0.99547  0.11346  1.0000
  O   O5        1.0  0.28658  0.01945  0.04202  1.0000
  O   O6        1.0  0.17531  0.96252  0.11466  1.0000
  O   O7        1.0  0.28209  0.95236  0.05830  1.0000
  O   O8        1.0  0.17789  0.02993  0.10348  1.0000
  N   N6        1.0  0.34926  0.99144  0.24973  1.0000
  H   H9        1.0  0.35660  0.95992  0.22910  1.0000
  C   C16       1.0  0.08226  0.41738  0.38631  1.0000
  C   C17       1.0  0.03709  0.41004  0.40430  1.0000
  C   C18       1.0  0.00644  0.44297  0.37936  1.0000
  H   H10       1.0  0.47374  0.43842  0.39440  1.0000
  C   C19       1.0  0.48818  0.01554  0.31502  1.0000
  C   C20       1.0  0.49331  0.05951  0.34555  1.0000
  C   C21       1.0  0.46098  0.09209  0.32819  1.0000
  C   C22       1.0  0.42295  0.08001  0.27922  1.0000
  H   H11       1.0  0.02034  0.06777  0.38315  1.0000
  H   H12       1.0  0.39908  0.10322  0.26732  1.0000
  H   H13       1.0  0.35567  0.05392  0.18550  1.0000
  C   C23       1.0  0.46565  0.13777  0.36433  1.0000
  H   H14       1.0  0.46480  0.13538  0.43715  1.0000
  C   C24       1.0  0.02235  0.36963  0.45238  1.0000
  H   H15       1.0  0.00812  0.37964  0.51649  1.0000
  H   H16       1.0  0.16115  0.45847  0.39999  1.0000
  C   C25       1.0  0.99907  0.26945  0.45359  1.0000
  C   C26       1.0  0.00469  0.22422  0.43699  1.0000
  H   H17       1.0  0.00666  0.20307  0.49015  1.0000
  H   H18       1.0  0.99709  0.28033  0.51818  1.0000
  N   N7        1.0  0.98890  0.34521  0.39870  1.0000
  H   H19       1.0  0.95791  0.34932  0.42549  1.0000
  C   C27       1.0  0.23870  0.00603  0.35144  1.0000
  C   C28       1.0  0.28457  0.00313  0.33961  1.0000
  H   H20       1.0  0.30474  0.00471  0.39439  1.0000
  H   H21       1.0  0.22638  0.00984  0.41461  1.0000
  N   N8        1.0  0.16309  0.00279  0.29091  1.0000
  H   H22       1.0  0.15451  0.02999  0.32809  1.0000
  C   C29       1.0  0.02007  0.98250  0.33702  1.0000
  C   C30       1.0  0.06579  0.98892  0.32092  1.0000
  C   C31       1.0  0.09744  0.95669  0.34552  1.0000
  H   H23       1.0  0.07601  0.51741  0.29060  1.0000
  H   H24       1.0  0.10485  0.89399  0.40528  1.0000
  C   C32       1.0  0.41642  0.53641  0.24845  1.0000
  C   C33       1.0  0.44942  0.50460  0.26672  1.0000
  H   H25       1.0  0.44510  0.97294  0.24420  1.0000
  C   C34       1.0  0.37556  0.52440  0.19857  1.0000
  H   H26       1.0  0.38489  0.51098  0.13337  1.0000
  H   H27       1.0  0.43719  0.65783  0.34430  1.0000
  H   H28       1.0  0.05067  0.84849  0.46800  1.0000
  C   C35       1.0  0.14615  0.96170  0.33373  1.0000
  H   H29       1.0  0.15726  0.93365  0.29338  1.0000
  C   C36       1.0  0.99611  0.79968  0.38221  1.0000
  C   C37       1.0  0.00554  0.70763  0.34887  1.0000
  C   C38       1.0  0.00262  0.73786  0.27620  1.0000
  C   C39       1.0  0.99837  0.78402  0.29289  1.0000
  N   N9        1.0  0.00285  0.72038  0.18833  1.0000
  N   N10       1.0  0.99553  0.81290  0.21855  1.0000
  O   O9        1.0  0.96744  0.72810  0.14736  1.0000
  O   O10       1.0  0.02657  0.84048  0.21761  1.0000
  O   O11       1.0  0.03497  0.73422  0.14311  1.0000
  O   O12       1.0  0.95928  0.83309  0.21586  1.0000
  N   N11       1.0  0.00733  0.66073  0.33810  1.0000
  H   H30       1.0  0.01603  0.65200  0.27430  1.0000
  C   C40       1.0  0.20970  0.50274  0.27778  1.0000
  C   C41       1.0  0.30271  0.49677  0.25400  1.0000
  C   C42       1.0  0.27424  0.49429  0.17876  1.0000
  C   C43       1.0  0.22762  0.49779  0.19050  1.0000
  N   N12       1.0  0.29421  0.48785  0.09423  1.0000
  N   N13       1.0  0.20052  0.49548  0.11346  1.0000
  O   O13       1.0  0.28658  0.51945  0.04202  1.0000
  O   O14       1.0  0.17531  0.46252  0.11466  1.0000
  O   O15       1.0  0.28209  0.45235  0.05830  1.0000
  O   O16       1.0  0.17789  0.52993  0.10348  1.0000
  N   N14       1.0  0.34926  0.49144  0.24973  1.0000
  H   H31       1.0  0.35660  0.45992  0.22910  1.0000
  C   C44       1.0  0.08226  0.91739  0.38631  1.0000
  C   C45       1.0  0.03709  0.91004  0.40430  1.0000
  C   C46       1.0  0.00644  0.94297  0.37936  1.0000
  H   H32       1.0  0.47374  0.93842  0.39440  1.0000
  C   C47       1.0  0.48818  0.51554  0.31502  1.0000
  C   C48       1.0  0.49331  0.55951  0.34555  1.0000
  C   C49       1.0  0.46098  0.59209  0.32819  1.0000
  C   C50       1.0  0.42295  0.58001  0.27922  1.0000
  H   H33       1.0  0.02034  0.56777  0.38315  1.0000
  H   H34       1.0  0.39908  0.60322  0.26732  1.0000
  H   H35       1.0  0.35567  0.55392  0.18550  1.0000
  C   C51       1.0  0.46565  0.63777  0.36433  1.0000
  H   H36       1.0  0.46480  0.63538  0.43715  1.0000
  C   C52       1.0  0.02235  0.86964  0.45238  1.0000
  H   H37       1.0  0.00812  0.87964  0.51649  1.0000
  H   H38       1.0  0.16115  0.95847  0.39999  1.0000
  C   C53       1.0  0.99907  0.76945  0.45359  1.0000
  C   C54       1.0  0.00469  0.72422  0.43699  1.0000
  H   H39       1.0  0.00666  0.70307  0.49015  1.0000
  H   H40       1.0  0.99709  0.78033  0.51818  1.0000
  N   N15       1.0  0.98890  0.84521  0.39870  1.0000
  H   H41       1.0  0.95791  0.84932  0.42549  1.0000
  C   C55       1.0  0.23870  0.50603  0.35144  1.0000
  C   C56       1.0  0.28457  0.50313  0.33961  1.0000
  H   H42       1.0  0.30474  0.50472  0.39439  1.0000
  H   H43       1.0  0.22638  0.50984  0.41461  1.0000
  N   N16       1.0  0.16309  0.50279  0.29091  1.0000
  H   H44       1.0  0.15451  0.52999  0.32809  1.0000
  C   C57       1.0  0.52007  0.48250  0.33702  1.0000
  C   C58       1.0  0.56579  0.48892  0.32092  1.0000
  C   C59       1.0  0.59744  0.45669  0.34552  1.0000
  H   H45       1.0  0.57601  0.01741  0.29060  1.0000
  H   H46       1.0  0.60485  0.39399  0.40528  1.0000
  C   C60       1.0  0.91642  0.03641  0.24845  1.0000
  C   C61       1.0  0.94942  0.00460  0.26672  1.0000
  H   H47       1.0  0.94510  0.47294  0.24420  1.0000
  C   C62       1.0  0.87556  0.02440  0.19857  1.0000
  H   H48       1.0  0.88490  0.01098  0.13337  1.0000
  H   H49       1.0  0.93718  0.15783  0.34430  1.0000
  H   H50       1.0  0.55067  0.34849  0.46800  1.0000
  C   C63       1.0  0.64615  0.46170  0.33373  1.0000
  H   H51       1.0  0.65726  0.43365  0.29338  1.0000
  C   C64       1.0  0.49611  0.29968  0.38221  1.0000
  C   C65       1.0  0.50554  0.20764  0.34887  1.0000
  C   C66       1.0  0.50262  0.23786  0.27620  1.0000
  C   C67       1.0  0.49837  0.28402  0.29289  1.0000
  N   N17       1.0  0.50285  0.22038  0.18833  1.0000
  N   N18       1.0  0.49553  0.31290  0.21855  1.0000
  O   O17       1.0  0.46745  0.22810  0.14736  1.0000
  O   O18       1.0  0.52657  0.34048  0.21761  1.0000
  O   O19       1.0  0.53497  0.23422  0.14311  1.0000
  O   O20       1.0  0.45928  0.33309  0.21586  1.0000
  N   N19       1.0  0.50733  0.16073  0.33810  1.0000
  H   H52       1.0  0.51603  0.15199  0.27430  1.0000
  C   C68       1.0  0.70969  0.00274  0.27778  1.0000
  C   C69       1.0  0.80271  0.99676  0.25400  1.0000
  C   C70       1.0  0.77424  0.99429  0.17876  1.0000
  C   C71       1.0  0.72762  0.99779  0.19050  1.0000
  N   N20       1.0  0.79422  0.98785  0.09423  1.0000
  N   N21       1.0  0.70052  0.99547  0.11346  1.0000
  O   O21       1.0  0.78657  0.01945  0.04202  1.0000
  O   O22       1.0  0.67531  0.96252  0.11466  1.0000
  O   O23       1.0  0.78209  0.95236  0.05830  1.0000
  O   O24       1.0  0.67789  0.02993  0.10348  1.0000
  N   N22       1.0  0.84925  0.99144  0.24973  1.0000
  H   H53       1.0  0.85660  0.95992  0.22910  1.0000
  C   C72       1.0  0.58226  0.41738  0.38631  1.0000
  C   C73       1.0  0.53709  0.41004  0.40430  1.0000
  C   C74       1.0  0.50644  0.44297  0.37936  1.0000
  H   H54       1.0  0.97374  0.43842  0.39440  1.0000
  C   C75       1.0  0.98818  0.01554  0.31502  1.0000
  C   C76       1.0  0.99331  0.05951  0.34555  1.0000
  C   C77       1.0  0.96098  0.09209  0.32819  1.0000
  C   C78       1.0  0.92295  0.08001  0.27922  1.0000
  H   H55       1.0  0.52034  0.06777  0.38315  1.0000
  H   H56       1.0  0.89908  0.10322  0.26732  1.0000
  H   H57       1.0  0.85567  0.05392  0.18550  1.0000
  C   C79       1.0  0.96566  0.13777  0.36433  1.0000
  H   H58       1.0  0.96480  0.13538  0.43715  1.0000
  C   C80       1.0  0.52235  0.36963  0.45238  1.0000
  H   H59       1.0  0.50812  0.37964  0.51649  1.0000
  H   H60       1.0  0.66115  0.45847  0.39999  1.0000
  C   C81       1.0  0.49907  0.26945  0.45359  1.0000
  C   C82       1.0  0.50469  0.22422  0.43699  1.0000
  H   H61       1.0  0.50666  0.20307  0.49015  1.0000
  H   H62       1.0  0.49709  0.28033  0.51818  1.0000
  N   N23       1.0  0.48890  0.34521  0.39870  1.0000
  H   H63       1.0  0.45791  0.34932  0.42549  1.0000
  C   C83       1.0  0.73870  0.00603  0.35144  1.0000
  C   C84       1.0  0.78457  0.00313  0.33961  1.0000
  H   H64       1.0  0.80474  0.00471  0.39439  1.0000
  H   H65       1.0  0.72638  0.00984  0.41461  1.0000
  N   N24       1.0  0.66309  0.00279  0.29091  1.0000
  H   H66       1.0  0.65451  0.02999  0.32809  1.0000
  C   C85       1.0  0.52007  0.98250  0.33702  1.0000
  C   C86       1.0  0.56579  0.98892  0.32092  1.0000
  C   C87       1.0  0.59744  0.95669  0.34552  1.0000
  H   H67       1.0  0.57601  0.51741  0.29060  1.0000
  H   H68       1.0  0.60485  0.89399  0.40528  1.0000
  C   C88       1.0  0.91642  0.53641  0.24845  1.0000
  C   C89       1.0  0.94942  0.50460  0.26672  1.0000
  H   H69       1.0  0.94510  0.97294  0.24420  1.0000
  C   C90       1.0  0.87556  0.52440  0.19857  1.0000
  H   H70       1.0  0.88490  0.51098  0.13337  1.0000
  H   H71       1.0  0.93718  0.65783  0.34430  1.0000
  H   H72       1.0  0.55067  0.84849  0.46800  1.0000
  C   C91       1.0  0.64615  0.96170  0.33373  1.0000
  H   H73       1.0  0.65726  0.93365  0.29338  1.0000
  C   C92       1.0  0.49611  0.79968  0.38221  1.0000
  C   C93       1.0  0.50554  0.70763  0.34887  1.0000
  C   C94       1.0  0.50262  0.73786  0.27620  1.0000
  C   C95       1.0  0.49837  0.78402  0.29289  1.0000
  N   N25       1.0  0.50285  0.72038  0.18833  1.0000
  N   N26       1.0  0.49553  0.81290  0.21855  1.0000
  O   O25       1.0  0.46745  0.72810  0.14736  1.0000
  O   O26       1.0  0.52657  0.84048  0.21761  1.0000
  O   O27       1.0  0.53497  0.73422  0.14311  1.0000
  O   O28       1.0  0.45928  0.83309  0.21586  1.0000
  N   N27       1.0  0.50733  0.66073  0.33810  1.0000
  H   H74       1.0  0.51603  0.65200  0.27430  1.0000
  C   C96       1.0  0.70969  0.50274  0.27778  1.0000
  C   C97       1.0  0.80271  0.49677  0.25400  1.0000
  C   C98       1.0  0.77424  0.49429  0.17876  1.0000
  C   C99       1.0  0.72762  0.49779  0.19050  1.0000
  N   N28       1.0  0.79422  0.48785  0.09423  1.0000
  N   N29       1.0  0.70052  0.49548  0.11346  1.0000
  O   O29       1.0  0.78657  0.51945  0.04202  1.0000
  O   O30       1.0  0.67531  0.46252  0.11466  1.0000
  O   O31       1.0  0.78209  0.45235  0.05830  1.0000
  O   O32       1.0  0.67789  0.52993  0.10348  1.0000
  N   N30       1.0  0.84925  0.49144  0.24973  1.0000
  H   H75       1.0  0.85660  0.45992  0.22910  1.0000
  C   C100      1.0  0.58226  0.91739  0.38631  1.0000
  C   C101      1.0  0.53709  0.91004  0.40430  1.0000
  C   C102      1.0  0.50644  0.94297  0.37936  1.0000
  H   H76       1.0  0.97374  0.93842  0.39440  1.0000
  C   C103      1.0  0.98818  0.51554  0.31502  1.0000
  C   C104      1.0  0.99331  0.55951  0.34555  1.0000
  C   C105      1.0  0.96098  0.59209  0.32819  1.0000
  C   C106      1.0  0.92295  0.58001  0.27922  1.0000
  H   H77       1.0  0.52034  0.56777  0.38315  1.0000
  H   H78       1.0  0.89908  0.60322  0.26732  1.0000
  H   H79       1.0  0.85567  0.55392  0.18550  1.0000
  C   C107      1.0  0.96566  0.63777  0.36433  1.0000
  H   H80       1.0  0.96480  0.63538  0.43715  1.0000
  C   C108      1.0  0.52235  0.86964  0.45238  1.0000
  H   H81       1.0  0.50812  0.87964  0.51649  1.0000
  H   H82       1.0  0.66115  0.95847  0.39999  1.0000
  C   C109      1.0  0.49907  0.76945  0.45359  1.0000
  C   C110      1.0  0.50469  0.72422  0.43699  1.0000
  H   H83       1.0  0.50666  0.70307  0.49015  1.0000
  H   H84       1.0  0.49709  0.78033  0.51818  1.0000
  N   N31       1.0  0.48890  0.84521  0.39870  1.0000
  H   H85       1.0  0.45791  0.84932  0.42549  1.0000
  C   C111      1.0  0.73870  0.50603  0.35144  1.0000
  C   C112      1.0  0.78457  0.50313  0.33961  1.0000
  H   H86       1.0  0.80474  0.50472  0.39439  1.0000
  H   H87       1.0  0.72638  0.50984  0.41461  1.0000
  N   N32       1.0  0.66309  0.50279  0.29091  1.0000
  H   H88       1.0  0.65451  0.52999  0.32809  1.0000
