data_image0
_chemical_formula_structural       C10H5C6H3N2C10H5C6H3N2C10H5C6H3N2C10H5C6H3N2C6H2N2O4CHC6H2N2O4CHC6H2N2O4CHC2HC4HNH2NH2CHC2HC4HNH2NH2CHC2HC4HNH2NH2CHC8H7NC8H7NC8H7NC8H7NC2HC4HNH2NH2CHC2HC4HNH2NH2CHC2HC4HNH2NH2CHC6H2N2O4CHC6H2N2O4CHC6H2N2O4CH
_chemical_formula_sum              "C180 H120 N36 O24"
_cell_length_a       68.288
_cell_length_b       68.2729
_cell_length_c       14.9767
_cell_angle_alpha    90
_cell_angle_beta     90
_cell_angle_gamma    120.006

_space_group_name_H-M_alt    "P 1"
_space_group_IT_number       1

loop_
  _space_group_symop_operation_xyz
  'x, y, z'

loop_
  _atom_site_type_symbol
  _atom_site_label
  _atom_site_symmetry_multiplicity
  _atom_site_fract_x
  _atom_site_fract_y
  _atom_site_fract_z
  _atom_site_occupancy
  C   C1        1.0  0.96990  0.02134  0.32745  1.0000
  C   C2        1.0  0.04309  0.02278  0.33165  1.0000
  C   C3        1.0  0.97533  0.03936  0.26724  1.0000
  C   C4        1.0  0.96300  0.05084  0.26684  1.0000
  C   C5        1.0  0.94514  0.04498  0.32769  1.0000
  C   C6        1.0  0.96656  0.91304  0.28942  1.0000
  C   C7        1.0  0.97812  0.93682  0.28544  1.0000
  C   C8        1.0  0.05586  0.01691  0.27434  1.0000
  C   C9        1.0  0.07967  0.02927  0.27501  1.0000
  C   C10       1.0  0.09147  0.04756  0.33422  1.0000
  H   H1        1.0  0.96730  0.06369  0.22206  1.0000
  H   H2        1.0  0.99133  0.94475  0.24173  1.0000
  H   H3        1.0  0.97172  0.90448  0.24863  1.0000
  H   H4        1.0  0.04790  0.00384  0.23001  1.0000
  H   H5        1.0  0.08836  0.02469  0.23212  1.0000
  C   C11       1.0  0.01893  0.01036  0.33053  1.0000
  C   C12       1.0  0.00699  0.98643  0.33342  1.0000
  C   C13       1.0  0.98306  0.97375  0.33418  1.0000
  C   C14       1.0  0.97111  0.98573  0.33141  1.0000
  C   C15       1.0  0.98237  0.00964  0.32835  1.0000
  C   C16       1.0  0.00629  0.02163  0.32791  1.0000
  H   H6        1.0  0.95381  0.97683  0.32920  1.0000
  H   H7        1.0  0.01469  0.03895  0.32623  1.0000
  H   H8        1.0  0.98811  0.04404  0.22182  1.0000
  N   N1        1.0  0.11397  0.05880  0.33053  1.0000
  N   N2        1.0  0.93393  0.05627  0.32342  1.0000
  C   C17       1.0  0.45207  0.26241  0.31496  1.0000
  C   C18       1.0  0.45288  0.19117  0.34648  1.0000
  C   C19       1.0  0.47057  0.27341  0.25546  1.0000
  C   C20       1.0  0.48460  0.29704  0.25679  1.0000
  C   C21       1.0  0.48049  0.31043  0.31709  1.0000
  C   C22       1.0  0.34361  0.15830  0.27406  1.0000
  C   C23       1.0  0.36742  0.17019  0.27592  1.0000
  C   C24       1.0  0.44805  0.17210  0.29332  1.0000
  C   C25       1.0  0.46245  0.16285  0.29397  1.0000
  C   C26       1.0  0.48199  0.17242  0.34827  1.0000
  H   H9        1.0  0.49828  0.30435  0.21488  1.0000
  H   H10       1.0  0.37584  0.16456  0.23651  1.0000
  H   H11       1.0  0.33555  0.14415  0.23511  1.0000
  H   H12       1.0  0.43475  0.16561  0.24963  1.0000
  H   H13       1.0  0.45925  0.14987  0.25134  1.0000
  C   C27       1.0  0.44012  0.20248  0.33807  1.0000
  C   C28       1.0  0.41620  0.19062  0.33709  1.0000
  C   C29       1.0  0.40372  0.20205  0.32992  1.0000
  C   C30       1.0  0.41583  0.22595  0.32297  1.0000
  C   C31       1.0  0.43972  0.23833  0.32134  1.0000
  C   C32       1.0  0.45147  0.22628  0.32908  1.0000
  H   H14       1.0  0.40714  0.23449  0.31571  1.0000
  H   H15       1.0  0.46880  0.23512  0.32859  1.0000
  H   H16       1.0  0.47440  0.26422  0.21207  1.0000
  N   N3        1.0  0.49777  0.16659  0.34423  1.0000
  N   N4        1.0  0.49586  0.33230  0.31971  1.0000
  C   C33       1.0  0.72978  0.19031  0.31556  1.0000
  C   C34       1.0  0.80104  0.26237  0.34694  1.0000
  C   C35       1.0  0.71880  0.19783  0.25608  1.0000
  C   C36       1.0  0.69516  0.18820  0.25726  1.0000
  C   C37       1.0  0.68177  0.17070  0.31755  1.0000
  C   C38       1.0  0.83389  0.18605  0.27386  1.0000
  C   C39       1.0  0.82197  0.19793  0.27607  1.0000
  C   C40       1.0  0.82014  0.27657  0.29389  1.0000
  C   C41       1.0  0.82949  0.30025  0.29459  1.0000
  C   C42       1.0  0.81991  0.31026  0.34861  1.0000
  H   H17       1.0  0.68786  0.19458  0.21538  1.0000
  H   H18       1.0  0.82759  0.21201  0.23688  1.0000
  H   H19       1.0  0.84802  0.19217  0.23486  1.0000
  H   H20       1.0  0.82662  0.26973  0.25029  1.0000
  H   H21       1.0  0.84245  0.30998  0.25190  1.0000
  C   C43       1.0  0.78971  0.23829  0.33866  1.0000
  C   C44       1.0  0.80155  0.22622  0.33764  1.0000
  C   C45       1.0  0.79013  0.20231  0.33051  1.0000
  C   C46       1.0  0.76622  0.19051  0.32367  1.0000
  C   C47       1.0  0.75385  0.20204  0.32201  1.0000
  C   C48       1.0  0.76591  0.22585  0.32973  1.0000
  H   H22       1.0  0.75769  0.17329  0.31625  1.0000
  H   H23       1.0  0.75708  0.23434  0.32922  1.0000
  H   H24       1.0  0.72799  0.21085  0.21273  1.0000
  N   N5        1.0  0.82581  0.33189  0.34452  1.0000
  N   N6        1.0  0.65990  0.16416  0.32002  1.0000
  C   C49       1.0  0.80235  0.54031  0.31581  1.0000
  C   C50       1.0  0.73008  0.53902  0.34748  1.0000
  C   C51       1.0  0.79496  0.52191  0.25580  1.0000
  C   C52       1.0  0.80462  0.50793  0.25675  1.0000
  C   C53       1.0  0.82205  0.51197  0.31728  1.0000
  C   C54       1.0  0.80583  0.64853  0.28067  1.0000
  C   C55       1.0  0.79410  0.62473  0.28156  1.0000
  C   C56       1.0  0.71588  0.54402  0.29490  1.0000
  C   C57       1.0  0.69221  0.52963  0.29526  1.0000
  C   C58       1.0  0.68221  0.50993  0.34862  1.0000
  H   H25       1.0  0.79831  0.49431  0.21453  1.0000
  H   H26       1.0  0.78004  0.61632  0.24226  1.0000
  H   H27       1.0  0.79960  0.65656  0.24232  1.0000
  H   H28       1.0  0.72271  0.55744  0.25174  1.0000
  H   H29       1.0  0.68248  0.53295  0.25289  1.0000
  C   C59       1.0  0.75415  0.55187  0.33965  1.0000
  C   C60       1.0  0.76611  0.57579  0.33995  1.0000
  C   C61       1.0  0.79002  0.58841  0.33332  1.0000
  C   C62       1.0  0.80192  0.57643  0.32562  1.0000
  C   C63       1.0  0.79051  0.55254  0.32277  1.0000
  C   C64       1.0  0.76670  0.54065  0.33000  1.0000
  H   H30       1.0  0.81915  0.58522  0.31863  1.0000
  H   H31       1.0  0.75827  0.52333  0.32868  1.0000
  H   H32       1.0  0.78198  0.51812  0.21226  1.0000
  N   N7        1.0  0.66059  0.49421  0.34442  1.0000
  N   N8        1.0  0.82856  0.49661  0.31970  1.0000
  C   C65       1.0  0.27030  0.13192  0.29275  1.0000
  C   C66       1.0  0.25486  0.12823  0.22254  1.0000
  C   C67       1.0  0.23151  0.11808  0.24178  1.0000
  C   C68       1.0  0.22307  0.11129  0.32921  1.0000
  C   C69       1.0  0.18440  0.07838  0.31363  1.0000
  C   C70       1.0  0.16093  0.06868  0.32941  1.0000
  H   H33       1.0  0.15041  0.05226  0.31015  1.0000
  H   H34       1.0  0.22054  0.11554  0.19057  1.0000
  N   N9        1.0  0.19334  0.06597  0.27160  1.0000
  N   N10       1.0  0.26293  0.13487  0.13418  1.0000
  O   O1        1.0  0.18561  0.06011  0.19397  1.0000
  O   O2        1.0  0.25469  0.11825  0.08183  1.0000
  O   O3        1.0  0.18907  0.04859  0.31555  1.0000
  O   O4        1.0  0.25843  0.14944  0.10506  1.0000
  C   C71       1.0  0.29323  0.14075  0.27562  1.0000
  H   H35       1.0  0.29770  0.13606  0.22001  1.0000
  C   C72       1.0  0.86027  0.13912  0.29012  1.0000
  C   C73       1.0  0.86386  0.12742  0.21943  1.0000
  C   C74       1.0  0.87419  0.11435  0.23781  1.0000
  C   C75       1.0  0.88124  0.11276  0.32484  1.0000
  C   C76       1.0  0.91428  0.10729  0.30740  1.0000
  C   C77       1.0  0.92419  0.09368  0.32255  1.0000
  H   H36       1.0  0.94058  0.09968  0.30271  1.0000
  H   H37       1.0  0.87667  0.10595  0.18626  1.0000
  N   N11       1.0  0.92646  0.12865  0.26519  1.0000
  N   N12       1.0  0.85697  0.12879  0.13146  1.0000
  O   O5        1.0  0.93218  0.12682  0.18727  1.0000
  O   O6        1.0  0.87345  0.13724  0.07845  1.0000
  O   O7        1.0  0.94388  0.14187  0.30859  1.0000
  O   O8        1.0  0.84241  0.10968  0.10264  1.0000
  C   C78       1.0  0.85131  0.15314  0.27373  1.0000
  H   H38       1.0  0.85580  0.16225  0.21796  1.0000
  C   C79       1.0  0.85280  0.72178  0.29753  1.0000
  C   C80       1.0  0.86518  0.73638  0.22606  1.0000
  C   C81       1.0  0.87889  0.75981  0.24243  1.0000
  C   C82       1.0  0.88033  0.76921  0.32790  1.0000
  C   C83       1.0  0.88911  0.80837  0.29454  1.0000
  C   C84       1.0  0.90473  0.83185  0.29863  1.0000
  H   H39       1.0  0.90094  0.84263  0.26519  1.0000
  H   H40       1.0  0.88787  0.77014  0.19032  1.0000
  N   N13       1.0  0.86835  0.79988  0.24814  1.0000
  N   N14       1.0  0.86386  0.72741  0.13944  1.0000
  O   O9        1.0  0.87146  0.80506  0.16678  1.0000
  O   O10       1.0  0.85618  0.73562  0.08367  1.0000
  O   O11       1.0  0.85632  0.80719  0.28113  1.0000
  O   O12       1.0  0.88286  0.73106  0.11294  1.0000
  C   C85       1.0  0.83821  0.69888  0.28266  1.0000
  H   H41       1.0  0.82852  0.69437  0.22848  1.0000
  C   C86       1.0  0.59326  0.15020  0.26092  1.0000
  C   C87       1.0  0.61390  0.15015  0.26914  1.0000
  H   H42       1.0  0.62384  0.15339  0.21362  1.0000
  C   C88       1.0  0.55897  0.14638  0.33776  1.0000
  C   C89       1.0  0.51720  0.14662  0.33434  1.0000
  C   C90       1.0  0.51925  0.12956  0.28710  1.0000
  C   C91       1.0  0.54003  0.12961  0.29095  1.0000
  H   H43       1.0  0.54155  0.11733  0.25761  1.0000
  N   N15       1.0  0.58775  0.15509  0.17980  1.0000
  H   H44       1.0  0.59760  0.15839  0.12824  1.0000
  H   H45       1.0  0.57434  0.15636  0.17118  1.0000
  N   N16       1.0  0.50232  0.11326  0.23667  1.0000
  H   H46       1.0  0.50437  0.10204  0.20437  1.0000
  H   H47       1.0  0.48801  0.11276  0.22773  1.0000
  C   C92       1.0  0.49724  0.14761  0.33547  1.0000
  H   H48       1.0  0.48236  0.13347  0.33260  1.0000
  C   C93       1.0  0.84245  0.44386  0.26086  1.0000
  C   C94       1.0  0.84252  0.46456  0.26899  1.0000
  H   H49       1.0  0.83929  0.47126  0.21344  1.0000
  C   C95       1.0  0.84622  0.41337  0.33786  1.0000
  C   C96       1.0  0.84587  0.37130  0.33460  1.0000
  C   C97       1.0  0.86296  0.39038  0.28732  1.0000
  C   C98       1.0  0.86296  0.41113  0.29109  1.0000
  H   H50       1.0  0.87526  0.42492  0.25771  1.0000
  N   N17       1.0  0.83755  0.43343  0.17978  1.0000
  H   H51       1.0  0.83425  0.43998  0.12819  1.0000
  H   H52       1.0  0.83626  0.41874  0.17122  1.0000
  N   N18       1.0  0.87923  0.38969  0.23695  1.0000
  H   H53       1.0  0.89048  0.40295  0.20462  1.0000
  H   H54       1.0  0.87969  0.37586  0.22808  1.0000
  C   C99       1.0  0.84482  0.35031  0.33579  1.0000
  H   H55       1.0  0.85894  0.34952  0.33299  1.0000
  C   C100      1.0  0.54863  0.39892  0.26094  1.0000
  C   C101      1.0  0.52793  0.37829  0.26909  1.0000
  H   H56       1.0  0.52122  0.36836  0.21354  1.0000
  C   C102      1.0  0.57912  0.43317  0.33792  1.0000
  C   C103      1.0  0.62119  0.47488  0.33465  1.0000
  C   C104      1.0  0.60212  0.47290  0.28736  1.0000
  C   C105      1.0  0.58137  0.45215  0.29114  1.0000
  H   H57       1.0  0.56759  0.45067  0.25775  1.0000
  N   N19       1.0  0.55906  0.40443  0.17986  1.0000
  H   H58       1.0  0.55251  0.39458  0.12829  1.0000
  H   H59       1.0  0.57375  0.41783  0.17130  1.0000
  N   N20       1.0  0.60283  0.48987  0.23699  1.0000
  H   H60       1.0  0.58958  0.48787  0.20466  1.0000
  H   H61       1.0  0.61666  0.50416  0.22815  1.0000
  C   C106      1.0  0.64217  0.49481  0.33588  1.0000
  H   H62       1.0  0.64296  0.50972  0.33334  1.0000
  C   C107      1.0  0.97130  0.94955  0.33841  1.0000
  C   C108      1.0  0.93947  0.02684  0.38733  1.0000
  C   C109      1.0  0.95168  0.01526  0.38723  1.0000
  C   C110      1.0  0.95236  0.93750  0.39523  1.0000
  C   C111      1.0  0.94075  0.91371  0.39904  1.0000
  C   C112      1.0  0.94783  0.90116  0.34709  1.0000
  C   C113      1.0  0.07883  0.05362  0.39119  1.0000
  C   C114      1.0  0.05503  0.04141  0.38988  1.0000
  H   H63       1.0  0.92628  0.02179  0.43094  1.0000
  H   H64       1.0  0.94729  0.00248  0.43244  1.0000
  H   H65       1.0  0.94697  0.94597  0.43552  1.0000
  H   H66       1.0  0.92714  0.90559  0.44091  1.0000
  H   H67       1.0  0.08683  0.06712  0.43347  1.0000
  H   H68       1.0  0.04648  0.04613  0.43290  1.0000
  H   H69       1.0  0.01594  0.97811  0.33852  1.0000
  N   N21       1.0  0.93577  0.87868  0.35229  1.0000
  C   C115      1.0  0.37953  0.18980  0.32920  1.0000
  C   C116      1.0  0.46166  0.29964  0.37503  1.0000
  C   C117      1.0  0.44759  0.27595  0.37369  1.0000
  C   C118      1.0  0.36691  0.19693  0.38120  1.0000
  C   C119      1.0  0.34310  0.18494  0.37985  1.0000
  C   C120      1.0  0.33111  0.16563  0.32558  1.0000
  C   C121      1.0  0.48658  0.19101  0.40300  1.0000
  C   C122      1.0  0.47208  0.20005  0.40300  1.0000
  H   H70       1.0  0.45855  0.30877  0.42121  1.0000
  H   H71       1.0  0.43479  0.26859  0.41946  1.0000
  H   H72       1.0  0.37496  0.21077  0.42197  1.0000
  H   H73       1.0  0.33454  0.19054  0.41867  1.0000
  H   H74       1.0  0.50081  0.19845  0.44194  1.0000
  H   H75       1.0  0.47614  0.21372  0.44297  1.0000
  H   H76       1.0  0.40774  0.17342  0.34493  1.0000
  N   N22       1.0  0.30860  0.15511  0.32830  1.0000
  C   C123      1.0  0.80238  0.19038  0.32946  1.0000
  C   C124      1.0  0.69255  0.16262  0.37539  1.0000
  C   C125      1.0  0.71624  0.17224  0.37405  1.0000
  C   C126      1.0  0.79527  0.17058  0.38118  1.0000
  C   C127      1.0  0.80727  0.15877  0.37943  1.0000
  C   C128      1.0  0.82657  0.16615  0.32501  1.0000
  C   C129      1.0  0.80128  0.29629  0.40320  1.0000
  C   C130      1.0  0.79219  0.27274  0.40334  1.0000
  H   H77       1.0  0.68341  0.15036  0.42149  1.0000
  H   H78       1.0  0.72359  0.16681  0.41992  1.0000
  H   H79       1.0  0.78145  0.16475  0.42200  1.0000
  H   H80       1.0  0.80170  0.14458  0.41801  1.0000
  H   H81       1.0  0.79385  0.30313  0.44198  1.0000
  H   H82       1.0  0.77848  0.26316  0.44314  1.0000
  H   H83       1.0  0.81875  0.23496  0.34552  1.0000
  N   N23       1.0  0.83711  0.15418  0.32723  1.0000
  C   C131      1.0  0.80181  0.61261  0.33362  1.0000
  C   C132      1.0  0.83001  0.53072  0.37562  1.0000
  C   C133      1.0  0.82033  0.54474  0.37462  1.0000
  C   C134      1.0  0.82162  0.62525  0.38536  1.0000
  C   C135      1.0  0.83329  0.64907  0.38480  1.0000
  C   C136      1.0  0.82573  0.66107  0.33183  1.0000
  C   C137      1.0  0.69617  0.50516  0.40277  1.0000
  C   C138      1.0  0.71972  0.51965  0.40312  1.0000
  H   H84       1.0  0.84216  0.53374  0.42210  1.0000
  H   H85       1.0  0.82567  0.55742  0.42092  1.0000
  H   H86       1.0  0.82759  0.61720  0.42517  1.0000
  H   H87       1.0  0.84754  0.65763  0.42312  1.0000
  H   H88       1.0  0.68935  0.49081  0.44106  1.0000
  H   H89       1.0  0.72930  0.51546  0.44264  1.0000
  H   H90       1.0  0.75728  0.58414  0.34851  1.0000
  N   N24       1.0  0.83779  0.68360  0.33426  1.0000
  C   C139      1.0  0.23840  0.11491  0.40010  1.0000
  C   C140      1.0  0.26177  0.12523  0.38040  1.0000
  H   H91       1.0  0.27278  0.12743  0.43106  1.0000
  C   C141      1.0  0.19927  0.10081  0.34232  1.0000
  C   C142      1.0  0.15188  0.08086  0.37252  1.0000
  C   C143      1.0  0.16682  0.10354  0.40041  1.0000
  C   C144      1.0  0.19030  0.11309  0.38467  1.0000
  H   H92       1.0  0.20116  0.12938  0.40456  1.0000
  N   N25       1.0  0.23148  0.10839  0.48571  1.0000
  H   H93       1.0  0.24225  0.11081  0.53299  1.0000
  H   H94       1.0  0.21561  0.10066  0.50230  1.0000
  N   N26       1.0  0.15957  0.11665  0.44090  1.0000
  H   H95       1.0  0.17013  0.13216  0.45858  1.0000
  H   H96       1.0  0.14364  0.11133  0.45090  1.0000
  C   C145      1.0  0.12887  0.06993  0.39087  1.0000
  H   H97       1.0  0.12400  0.07076  0.45263  1.0000
  C   C146      1.0  0.87770  0.12440  0.39622  1.0000
  C   C147      1.0  0.86720  0.13734  0.37738  1.0000
  H   H98       1.0  0.86506  0.14611  0.42836  1.0000
  C   C148      1.0  0.89190  0.09958  0.33706  1.0000
  C   C149      1.0  0.91226  0.07249  0.36607  1.0000
  C   C150      1.0  0.88962  0.06458  0.39487  1.0000
  C   C151      1.0  0.87986  0.07834  0.37964  1.0000
  H   H99       1.0  0.86360  0.07280  0.40026  1.0000
  N   N27       1.0  0.88445  0.12405  0.48149  1.0000
  H   H100      1.0  0.88207  0.13234  0.52911  1.0000
  H   H101      1.0  0.89231  0.11600  0.49748  1.0000
  N   N28       1.0  0.87678  0.04424  0.43588  1.0000
  H   H102      1.0  0.86129  0.03917  0.45424  1.0000
  H   H103      1.0  0.88228  0.03376  0.44567  1.0000
  C   C152      1.0  0.92342  0.06066  0.38446  1.0000
  H   H104      1.0  0.92314  0.05555  0.44686  1.0000
  C   C153      1.0  0.86801  0.75466  0.40006  1.0000
  C   C154      1.0  0.85450  0.73114  0.38344  1.0000
  H   H105      1.0  0.84524  0.72068  0.43483  1.0000
  C   C155      1.0  0.89444  0.79309  0.33718  1.0000
  C   C156      1.0  0.92558  0.84053  0.34435  1.0000
  C   C157      1.0  0.93075  0.82522  0.38894  1.0000
  C   C158      1.0  0.91506  0.80172  0.38407  1.0000
  H   H106      1.0  0.91895  0.79059  0.41400  1.0000
  N   N29       1.0  0.86823  0.76249  0.48388  1.0000
  H   H107      1.0  0.85944  0.75227  0.53203  1.0000
  H   H108      1.0  0.87655  0.77851  0.49799  1.0000
  N   N30       1.0  0.95017  0.83215  0.43620  1.0000
  H   H109      1.0  0.95321  0.82136  0.46681  1.0000
  H   H110      1.0  0.96117  0.84805  0.44450  1.0000
  C   C159      1.0  0.94119  0.86345  0.33711  1.0000
  H   H111      1.0  0.95690  0.86797  0.31908  1.0000
  C   C160      1.0  0.62155  0.14646  0.35188  1.0000
  C   C161      1.0  0.60778  0.14203  0.42859  1.0000
  C   C162      1.0  0.58693  0.14158  0.42050  1.0000
  C   C163      1.0  0.57957  0.14583  0.33830  1.0000
  C   C164      1.0  0.55704  0.16338  0.38419  1.0000
  C   C165      1.0  0.53622  0.16309  0.38265  1.0000
  H   H112      1.0  0.53520  0.17544  0.41763  1.0000
  H   H113      1.0  0.57720  0.13852  0.47655  1.0000
  N   N31       1.0  0.57603  0.18063  0.42989  1.0000
  N   N32       1.0  0.61528  0.13882  0.51271  1.0000
  O   O13       1.0  0.57212  0.18069  0.51187  1.0000
  O   O14       1.0  0.60179  0.11972  0.54480  1.0000
  O   O15       1.0  0.58186  0.19983  0.39826  1.0000
  O   O16       1.0  0.61762  0.15375  0.56775  1.0000
  C   C166      1.0  0.64250  0.14782  0.35781  1.0000
  H   H114      1.0  0.64415  0.13679  0.39572  1.0000
  C   C167      1.0  0.84623  0.47593  0.35169  1.0000
  C   C168      1.0  0.85064  0.46658  0.42844  1.0000
  C   C169      1.0  0.85108  0.44617  0.42044  1.0000
  C   C170      1.0  0.84681  0.43454  0.33829  1.0000
  C   C171      1.0  0.82920  0.39445  0.38436  1.0000
  C   C172      1.0  0.82944  0.37389  0.38290  1.0000
  H   H115      1.0  0.81707  0.36054  0.41793  1.0000
  H   H116      1.0  0.85413  0.43951  0.47652  1.0000
  N   N33       1.0  0.81198  0.39625  0.43003  1.0000
  N   N34       1.0  0.85386  0.47732  0.51253  1.0000
  O   O17       1.0  0.81192  0.39230  0.51203  1.0000
  O   O18       1.0  0.87296  0.48293  0.54463  1.0000
  O   O19       1.0  0.79278  0.38290  0.39844  1.0000
  O   O20       1.0  0.83893  0.46474  0.56759  1.0000
  C   C173      1.0  0.84488  0.49553  0.35754  1.0000
  H   H117      1.0  0.85590  0.50820  0.39553  1.0000
  C   C174      1.0  0.51656  0.37064  0.35180  1.0000
  C   C175      1.0  0.52591  0.38439  0.42855  1.0000
  C   C176      1.0  0.54632  0.40524  0.42054  1.0000
  C   C177      1.0  0.55795  0.41259  0.33837  1.0000
  C   C178      1.0  0.59803  0.43505  0.38441  1.0000
  C   C179      1.0  0.61859  0.45584  0.38295  1.0000
  H   H118      1.0  0.63193  0.45682  0.41798  1.0000
  H   H119      1.0  0.55299  0.41495  0.47661  1.0000
  N   N35       1.0  0.59622  0.41603  0.43009  1.0000
  N   N36       1.0  0.51518  0.37689  0.51265  1.0000
  O   O21       1.0  0.60017  0.41991  0.51209  1.0000
  O   O22       1.0  0.50959  0.39039  0.54474  1.0000
  O   O23       1.0  0.60956  0.41015  0.39849  1.0000
  O   O24       1.0  0.52775  0.37452  0.56769  1.0000
  C   C180      1.0  0.49696  0.34969  0.35765  1.0000
  H   H120      1.0  0.48428  0.34805  0.39556  1.0000
