data_image0
_chemical_formula_structural       CHNHCNC2HCH2NC2HCH2NCH2NC18H12NHNHNHNC18H12NHNHNHCNCNH2CH2CNCNH2CH2C2NHCH2
_chemical_formula_sum              "C54 H51 N17"
_cell_length_a       32.3252
_cell_length_b       32.3264
_cell_length_c       14.9273
_cell_angle_alpha    90
_cell_angle_beta     90
_cell_angle_gamma    119.999

_space_group_name_H-M_alt    "P 1"
_space_group_IT_number       1

loop_
  _space_group_symop_operation_xyz
  'x, y, z'

loop_
  _atom_site_type_symbol
  _atom_site_label
  _atom_site_symmetry_multiplicity
  _atom_site_fract_x
  _atom_site_fract_y
  _atom_site_fract_z
  _atom_site_occupancy
  C   C1        1.0  0.02207  0.52753  0.26157  1.0000
  H   H1        1.0  0.03205  0.54861  0.20569  1.0000
  N   N1        1.0  0.03902  0.49470  0.38816  1.0000
  H   H2        1.0  0.00585  0.43966  0.51988  1.0000
  C   C2        1.0  0.05589  0.52415  0.31594  1.0000
  N   N2        1.0  0.49996  0.46543  0.28622  1.0000
  C   C3        1.0  0.46953  0.48162  0.26729  1.0000
  C   C4        1.0  0.46736  0.51467  0.32581  1.0000
  H   H3        1.0  0.44864  0.46962  0.21123  1.0000
  C   C5        1.0  0.43530  0.53419  0.30738  1.0000
  H   H4        1.0  0.44905  0.55668  0.24778  1.0000
  H   H5        1.0  0.39953  0.50449  0.29259  1.0000
  N   N3        1.0  0.53301  0.03475  0.29136  1.0000
  C   C6        1.0  0.51186  0.98771  0.27050  1.0000
  C   C7        1.0  0.47451  0.95439  0.32525  1.0000
  H   H6        1.0  0.52252  0.97734  0.21456  1.0000
  C   C8        1.0  0.44672  0.90267  0.30439  1.0000
  H   H7        1.0  0.40896  0.89238  0.30183  1.0000
  H   H8        1.0  0.45660  0.89574  0.23830  1.0000
  N   N4        1.0  0.97513  0.50111  0.28290  1.0000
  C   C9        1.0  0.10765  0.54889  0.29501  1.0000
  H   H9        1.0  0.11863  0.52193  0.29274  1.0000
  H   H10       1.0  0.11432  0.56558  0.22882  1.0000
  N   N5        1.0  0.33810  0.67179  0.35629  1.0000
  C   C10       1.0  0.36107  0.64425  0.36126  1.0000
  C   C11       1.0  0.28754  0.64901  0.35608  1.0000
  C   C12       1.0  0.36591  0.72235  0.35838  1.0000
  C   C13       1.0  0.39715  0.74747  0.28706  1.0000
  C   C14       1.0  0.42631  0.79749  0.29066  1.0000
  C   C15       1.0  0.42416  0.82351  0.36497  1.0000
  C   C16       1.0  0.39258  0.79838  0.43578  1.0000
  C   C17       1.0  0.36387  0.74828  0.43274  1.0000
  C   C18       1.0  0.38772  0.64646  0.43778  1.0000
  C   C19       1.0  0.41096  0.61953  0.44216  1.0000
  C   C20       1.0  0.40761  0.58902  0.37119  1.0000
  C   C21       1.0  0.38063  0.58692  0.29469  1.0000
  C   C22       1.0  0.35790  0.61435  0.28962  1.0000
  C   C23       1.0  0.26075  0.62183  0.43048  1.0000
  C   C24       1.0  0.21062  0.60028  0.43106  1.0000
  C   C25       1.0  0.18628  0.60582  0.35773  1.0000
  C   C26       1.0  0.21315  0.63319  0.28337  1.0000
  C   C27       1.0  0.26322  0.65416  0.28221  1.0000
  H   H11       1.0  0.43019  0.62197  0.49837  1.0000
  H   H12       1.0  0.39050  0.66790  0.49054  1.0000
  H   H13       1.0  0.33877  0.61228  0.23352  1.0000
  H   H14       1.0  0.37709  0.56534  0.24180  1.0000
  H   H15       1.0  0.39950  0.72928  0.23302  1.0000
  H   H16       1.0  0.44956  0.81484  0.23931  1.0000
  H   H17       1.0  0.27775  0.61805  0.48502  1.0000
  H   H18       1.0  0.19193  0.58120  0.48607  1.0000
  H   H19       1.0  0.19636  0.63839  0.23011  1.0000
  H   H20       1.0  0.28201  0.67403  0.22800  1.0000
  H   H21       1.0  0.34181  0.73069  0.48548  1.0000
  H   H22       1.0  0.39095  0.81644  0.49071  1.0000
  N   N6        1.0  0.43195  0.56276  0.38229  1.0000
  H   H23       1.0  0.41676  0.54030  0.43613  1.0000
  N   N7        1.0  0.45400  0.87367  0.37311  1.0000
  H   H24       1.0  0.48898  0.88153  0.37231  1.0000
  N   N8        1.0  0.13604  0.58553  0.36361  1.0000
  H   H25       1.0  0.12818  0.61262  0.36109  1.0000
  N   N9        1.0  0.67295  0.33724  0.33950  1.0000
  C   C28       1.0  0.64607  0.36094  0.33331  1.0000
  C   C29       1.0  0.72350  0.36390  0.33244  1.0000
  C   C30       1.0  0.64906  0.28663  0.33389  1.0000
  C   C31       1.0  0.62152  0.26264  0.25784  1.0000
  C   C32       1.0  0.59896  0.21260  0.25141  1.0000
  C   C33       1.0  0.60367  0.18512  0.32035  1.0000
  C   C34       1.0  0.63168  0.20945  0.39595  1.0000
  C   C35       1.0  0.65363  0.25950  0.40321  1.0000
  C   C36       1.0  0.64956  0.38830  0.25700  1.0000
  C   C37       1.0  0.62119  0.40986  0.24925  1.0000
  C   C38       1.0  0.58803  0.40414  0.31693  1.0000
  C   C39       1.0  0.58444  0.37633  0.39282  1.0000
  C   C40       1.0  0.61357  0.35560  0.40160  1.0000
  C   C41       1.0  0.75120  0.39610  0.40069  1.0000
  C   C42       1.0  0.80116  0.42433  0.39175  1.0000
  C   C43       1.0  0.82486  0.42031  0.31547  1.0000
  C   C44       1.0  0.79683  0.38764  0.24759  1.0000
  C   C45       1.0  0.74686  0.36003  0.25570  1.0000
  H   H26       1.0  0.62403  0.42885  0.19251  1.0000
  H   H27       1.0  0.67228  0.39202  0.20594  1.0000
  H   H28       1.0  0.60983  0.33516  0.45666  1.0000
  H   H29       1.0  0.55987  0.37029  0.44168  1.0000
  H   H30       1.0  0.61818  0.28160  0.20626  1.0000
  H   H31       1.0  0.57961  0.19629  0.19507  1.0000
  H   H32       1.0  0.73490  0.39997  0.45625  1.0000
  H   H33       1.0  0.82020  0.44846  0.44092  1.0000
  H   H34       1.0  0.81265  0.38438  0.19076  1.0000
  H   H35       1.0  0.72748  0.33743  0.20478  1.0000
  H   H36       1.0  0.67398  0.27625  0.45832  1.0000
  H   H37       1.0  0.63681  0.19080  0.44586  1.0000
  N   N10       1.0  0.55605  0.42221  0.30662  1.0000
  H   H38       1.0  0.55853  0.43520  0.24282  1.0000
  N   N11       1.0  0.58378  0.13469  0.31210  1.0000
  H   H39       1.0  0.57117  0.12407  0.24813  1.0000
  N   N12       1.0  0.87519  0.45098  0.30553  1.0000
  H   H40       1.0  0.88530  0.44876  0.24126  1.0000
  C   C46       1.0  0.52949  0.47937  0.35870  1.0000
  N   N13       1.0  0.49687  0.52877  0.39815  1.0000
  C   C47       1.0  0.52788  0.51307  0.41780  1.0000
  N   N14       1.0  0.55512  0.53080  0.49225  1.0000
  H   H41       1.0  0.57818  0.52147  0.50990  1.0000
  H   H42       1.0  0.55232  0.55386  0.52979  1.0000
  C   C48       1.0  0.56236  0.46000  0.37155  1.0000
  H   H43       1.0  0.55619  0.44485  0.43893  1.0000
  H   H44       1.0  0.59909  0.48980  0.36775  1.0000
  C   C49       1.0  0.52089  0.05244  0.36320  1.0000
  N   N15       1.0  0.46254  0.97180  0.39750  1.0000
  C   C50       1.0  0.48382  0.01895  0.41979  1.0000
  N   N16       1.0  0.46755  0.03067  0.49364  1.0000
  H   H45       1.0  0.48086  0.06353  0.51317  1.0000
  H   H46       1.0  0.44193  0.00601  0.52935  1.0000
  C   C51       1.0  0.54475  0.10515  0.37664  1.0000
  H   H47       1.0  0.55988  0.11284  0.44409  1.0000
  H   H48       1.0  0.51727  0.11544  0.37291  1.0000
  C   C52       1.0  0.95799  0.47124  0.35478  1.0000
  C   C53       1.0  0.99199  0.46821  0.41084  1.0000
  N   N17       1.0  0.98086  0.44022  0.48459  1.0000
  H   H49       1.0  0.94812  0.42021  0.50435  1.0000
  C   C54       1.0  0.90539  0.44192  0.36914  1.0000
  H   H50       1.0  0.89796  0.44923  0.43690  1.0000
  H   H51       1.0  0.89547  0.40426  0.36520  1.0000
