data_image0
_chemical_formula_structural       C8HC7HCH4N3C8HC7HCH4N4C2NC2HNHCHC2NC2HNHCHC2NC2HNHCHC2NC2HNHCHC2NC2HNHCHC2NC2HNHCHC8HC7HCH4N5C2HC6H3CHC2HC6H3CHC2HC6H3CHC2HC6H3CHC2HC6H3CHC2HC6H3CH
_chemical_formula_sum              "C132 H66 N24"
_cell_length_a       38.0543
_cell_length_b       38.0544
_cell_length_c       15.0099
_cell_angle_alpha    90.0002
_cell_angle_beta     89.9998
_cell_angle_gamma    120

_space_group_name_H-M_alt    "P 1"
_space_group_IT_number       1

loop_
  _space_group_symop_operation_xyz
  'x, y, z'

loop_
  _atom_site_type_symbol
  _atom_site_label
  _atom_site_symmetry_multiplicity
  _atom_site_fract_x
  _atom_site_fract_y
  _atom_site_fract_z
  _atom_site_occupancy
  C   C1        1.0  0.55256  0.57762  0.32966  1.0000
  C   C2        1.0  0.58968  0.57690  0.32977  1.0000
  C   C3        1.0  0.62728  0.61385  0.33207  1.0000
  C   C4        1.0  0.62761  0.65105  0.33365  1.0000
  C   C5        1.0  0.59126  0.65221  0.33282  1.0000
  C   C6        1.0  0.55345  0.61550  0.33112  1.0000
  C   C7        1.0  0.58802  0.53897  0.32998  1.0000
  C   C8        1.0  0.51634  0.61554  0.33129  1.0000
  H   H1        1.0  0.65478  0.67771  0.33536  1.0000
  C   C9        1.0  0.51459  0.54052  0.32965  1.0000
  C   C10       1.0  0.51370  0.50264  0.33110  1.0000
  C   C11       1.0  0.47589  0.46593  0.33278  1.0000
  C   C12       1.0  0.43954  0.46709  0.33358  1.0000
  C   C13       1.0  0.43987  0.50429  0.33201  1.0000
  C   C14       1.0  0.47747  0.54124  0.32973  1.0000
  C   C15       1.0  0.55081  0.50260  0.33129  1.0000
  H   H2        1.0  0.41237  0.44043  0.33528  1.0000
  C   C16       1.0  0.47913  0.57917  0.32994  1.0000
  H   H3        1.0  0.55136  0.47601  0.33243  1.0000
  H   H4        1.0  0.61399  0.53722  0.33072  1.0000
  H   H5        1.0  0.45316  0.58092  0.33068  1.0000
  H   H6        1.0  0.51579  0.64213  0.33244  1.0000
  N   N1        1.0  0.59383  0.68807  0.34151  1.0000
  N   N2        1.0  0.40485  0.50409  0.32935  1.0000
  N   N3        1.0  0.47333  0.43007  0.34147  1.0000
  C   C17       1.0  0.51503  0.05951  0.32966  1.0000
  C   C18       1.0  0.51575  0.09734  0.32975  1.0000
  C   C19       1.0  0.47880  0.09799  0.33203  1.0000
  C   C20       1.0  0.44160  0.06113  0.33367  1.0000
  C   C21       1.0  0.44045  0.02362  0.33296  1.0000
  C   C22       1.0  0.47715  0.02251  0.33117  1.0000
  C   C23       1.0  0.55368  0.13362  0.32992  1.0000
  C   C24       1.0  0.47712  0.98536  0.33133  1.0000
  H   H7        1.0  0.41493  0.06163  0.33539  1.0000
  C   C25       1.0  0.55213  0.05864  0.32965  1.0000
  C   C26       1.0  0.59001  0.09564  0.33114  1.0000
  C   C27       1.0  0.62672  0.09453  0.33292  1.0000
  C   C28       1.0  0.62557  0.05702  0.33363  1.0000
  C   C29       1.0  0.58837  0.02015  0.33199  1.0000
  C   C30       1.0  0.55142  0.02080  0.32973  1.0000
  C   C31       1.0  0.59005  0.13278  0.33131  1.0000
  H   H8        1.0  0.65223  0.05652  0.33534  1.0000
  C   C32       1.0  0.51349  0.98453  0.32991  1.0000
  H   H9        1.0  0.61664  0.15992  0.33249  1.0000
  H   H10       1.0  0.55542  0.16133  0.33071  1.0000
  H   H11       1.0  0.51174  0.95681  0.33071  1.0000
  H   H12       1.0  0.45053  0.95823  0.33253  1.0000
  N   N4        1.0  0.40459  0.99031  0.34161  1.0000
  N   N5        1.0  0.47860  0.13282  0.32937  1.0000
  N   N6        1.0  0.58856  0.98532  0.32933  1.0000
  N   N7        1.0  0.66257  0.12784  0.34157  1.0000
  C   C33       1.0  0.16036  0.49669  0.29907  1.0000
  C   C34       1.0  0.18459  0.49532  0.22919  1.0000
  N   N8        1.0  0.21907  0.49447  0.24713  1.0000
  C   C35       1.0  0.23260  0.49489  0.33109  1.0000
  C   C36       1.0  0.32548  0.49110  0.28629  1.0000
  H   H13       1.0  0.17674  0.49502  0.16394  1.0000
  N   N9        1.0  0.29076  0.49240  0.27619  1.0000
  H   H14       1.0  0.33997  0.48959  0.23031  1.0000
  C   C37       1.0  0.12535  0.49819  0.27974  1.0000
  H   H15       1.0  0.11836  0.49972  0.21639  1.0000
  C   C38       1.0  0.59594  0.74823  0.29900  1.0000
  C   C39       1.0  0.59731  0.77383  0.22913  1.0000
  N   N10       1.0  0.59816  0.80916  0.24708  1.0000
  C   C40       1.0  0.59775  0.82228  0.33104  1.0000
  C   C41       1.0  0.60154  0.91894  0.28627  1.0000
  H   H16       1.0  0.59760  0.76628  0.16387  1.0000
  N   N11       1.0  0.60023  0.88292  0.27616  1.0000
  H   H17       1.0  0.60305  0.93494  0.23029  1.0000
  C   C42       1.0  0.59442  0.71171  0.27965  1.0000
  H   H18       1.0  0.59280  0.70315  0.21630  1.0000
  C   C43       1.0  0.34441  0.93229  0.29906  1.0000
  C   C44       1.0  0.31882  0.90805  0.22919  1.0000
  N   N12       1.0  0.28349  0.87357  0.24712  1.0000
  C   C45       1.0  0.27037  0.86004  0.33108  1.0000
  C   C46       1.0  0.17371  0.76717  0.28628  1.0000
  H   H19       1.0  0.32637  0.91591  0.16393  1.0000
  N   N13       1.0  0.20973  0.80188  0.27618  1.0000
  H   H20       1.0  0.15772  0.75268  0.23031  1.0000
  C   C47       1.0  0.38093  0.96731  0.27973  1.0000
  H   H21       1.0  0.38945  0.97428  0.21638  1.0000
  C   C48       1.0  0.90678  0.62144  0.29896  1.0000
  C   C49       1.0  0.88254  0.62281  0.22910  1.0000
  N   N14       1.0  0.84806  0.62366  0.24707  1.0000
  C   C50       1.0  0.83454  0.62325  0.33104  1.0000
  C   C51       1.0  0.74167  0.62704  0.28631  1.0000
  H   H22       1.0  0.89038  0.62311  0.16384  1.0000
  N   N15       1.0  0.77638  0.62573  0.27618  1.0000
  H   H23       1.0  0.72717  0.62854  0.23034  1.0000
  C   C52       1.0  0.94178  0.61993  0.27959  1.0000
  H   H24       1.0  0.94873  0.61834  0.21624  1.0000
  C   C53       1.0  0.47121  0.36990  0.29897  1.0000
  C   C54       1.0  0.46984  0.34430  0.22911  1.0000
  N   N16       1.0  0.46900  0.30897  0.24707  1.0000
  C   C55       1.0  0.46941  0.29586  0.33103  1.0000
  C   C56       1.0  0.46562  0.19920  0.28628  1.0000
  H   H25       1.0  0.46954  0.35185  0.16385  1.0000
  N   N17       1.0  0.46693  0.23522  0.27617  1.0000
  H   H26       1.0  0.46412  0.18321  0.23031  1.0000
  C   C57       1.0  0.47272  0.40642  0.27962  1.0000
  H   H27       1.0  0.47432  0.41497  0.21626  1.0000
  C   C58       1.0  0.72275  0.18586  0.29903  1.0000
  C   C59       1.0  0.74835  0.21010  0.22916  1.0000
  N   N18       1.0  0.78367  0.24459  0.24711  1.0000
  C   C60       1.0  0.79678  0.25811  0.33107  1.0000
  C   C61       1.0  0.89344  0.35100  0.28630  1.0000
  H   H28       1.0  0.74080  0.20225  0.16390  1.0000
  N   N19       1.0  0.85742  0.31628  0.27619  1.0000
  H   H29       1.0  0.90943  0.36548  0.23032  1.0000
  C   C62       1.0  0.68625  0.15083  0.27969  1.0000
  H   H30       1.0  0.67773  0.14384  0.21634  1.0000
  C   C63       1.0  0.03315  0.54009  0.32967  1.0000
  C   C64       1.0  0.99532  0.50298  0.32976  1.0000
  C   C65       1.0  0.99466  0.46537  0.33205  1.0000
  C   C66       1.0  0.03152  0.46504  0.33368  1.0000
  C   C67       1.0  0.06904  0.50140  0.33297  1.0000
  C   C68       1.0  0.07014  0.53921  0.33119  1.0000
  C   C69       1.0  0.95904  0.50463  0.32993  1.0000
  C   C70       1.0  0.10729  0.57632  0.33136  1.0000
  H   H31       1.0  0.03103  0.43787  0.33538  1.0000
  C   C71       1.0  0.03402  0.57807  0.32964  1.0000
  C   C72       1.0  0.99702  0.57895  0.33107  1.0000
  C   C73       1.0  0.99812  0.61676  0.33274  1.0000
  C   C74       1.0  0.03564  0.65312  0.33355  1.0000
  C   C75       1.0  0.07250  0.65278  0.33199  1.0000
  C   C76       1.0  0.07185  0.61518  0.32974  1.0000
  C   C77       1.0  0.95988  0.54184  0.33123  1.0000
  H   H32       1.0  0.03614  0.68028  0.33525  1.0000
  C   C78       1.0  0.10813  0.61353  0.32997  1.0000
  H   H33       1.0  0.93274  0.54129  0.33236  1.0000
  H   H34       1.0  0.93133  0.47867  0.33065  1.0000
  H   H35       1.0  0.13584  0.63949  0.33073  1.0000
  H   H36       1.0  0.13443  0.57687  0.33255  1.0000
  N   N20       1.0  0.10234  0.49885  0.34161  1.0000
  N   N21       1.0  0.95983  0.43035  0.32937  1.0000
  N   N22       1.0  0.10733  0.68781  0.32934  1.0000
  N   N23       1.0  0.96483  0.61932  0.34144  1.0000
  N   N24       1.0  0.66231  0.61405  0.32942  1.0000
  C   C79       1.0  0.20984  0.49625  0.40457  1.0000
  C   C80       1.0  0.17383  0.49717  0.38741  1.0000
  H   H37       1.0  0.15740  0.49830  0.44021  1.0000
  C   C81       1.0  0.26871  0.49385  0.34579  1.0000
  C   C82       1.0  0.34057  0.49098  0.37235  1.0000
  C   C83       1.0  0.31822  0.49240  0.44624  1.0000
  C   C84       1.0  0.28225  0.49400  0.43407  1.0000
  C   C85       1.0  0.25949  0.49548  0.50676  1.0000
  C   C86       1.0  0.22359  0.49664  0.49213  1.0000
  H   H38       1.0  0.26878  0.49561  0.57079  1.0000
  H   H39       1.0  0.20753  0.49761  0.54583  1.0000
  H   H40       1.0  0.32822  0.49231  0.50960  1.0000
  C   C87       1.0  0.37527  0.48839  0.38516  1.0000
  H   H41       1.0  0.37760  0.47487  0.43989  1.0000
  C   C88       1.0  0.59639  0.79814  0.40452  1.0000
  C   C89       1.0  0.59546  0.76122  0.38734  1.0000
  H   H42       1.0  0.59432  0.74364  0.44013  1.0000
  C   C90       1.0  0.59879  0.85942  0.34575  1.0000
  C   C91       1.0  0.60166  0.93414  0.37234  1.0000
  C   C92       1.0  0.60024  0.91038  0.44622  1.0000
  C   C93       1.0  0.59864  0.87280  0.43404  1.0000
  C   C94       1.0  0.59717  0.84856  0.50672  1.0000
  C   C95       1.0  0.59600  0.81150  0.49208  1.0000
  H   H43       1.0  0.59703  0.85772  0.57076  1.0000
  H   H44       1.0  0.59503  0.79447  0.54578  1.0000
  H   H45       1.0  0.60034  0.92047  0.50957  1.0000
  C   C96       1.0  0.60425  0.97144  0.38515  1.0000
  H   H46       1.0  0.61775  0.98728  0.43991  1.0000
  C   C97       1.0  0.29450  0.88281  0.40456  1.0000
  C   C98       1.0  0.33142  0.91882  0.38740  1.0000
  H   H47       1.0  0.34899  0.93525  0.44020  1.0000
  C   C99       1.0  0.23323  0.82394  0.34578  1.0000
  C   C100      1.0  0.15850  0.75208  0.37235  1.0000
  C   C101      1.0  0.18226  0.77443  0.44623  1.0000
  C   C102      1.0  0.21984  0.81040  0.43407  1.0000
  C   C103      1.0  0.24408  0.83316  0.50676  1.0000
  C   C104      1.0  0.28114  0.86906  0.49212  1.0000
  H   H48       1.0  0.23492  0.82387  0.57078  1.0000
  H   H49       1.0  0.29816  0.88512  0.54582  1.0000
  H   H50       1.0  0.17217  0.76443  0.50959  1.0000
  C   C105      1.0  0.12120  0.71738  0.38515  1.0000
  H   H51       1.0  0.10536  0.71505  0.43989  1.0000
  C   C106      1.0  0.85732  0.62189  0.40451  1.0000
  C   C107      1.0  0.89332  0.62097  0.38731  1.0000
  H   H52       1.0  0.90976  0.61983  0.44009  1.0000
  C   C108      1.0  0.79844  0.62429  0.34576  1.0000
  C   C109      1.0  0.72658  0.62715  0.37239  1.0000
  C   C110      1.0  0.74894  0.62574  0.44625  1.0000
  C   C111      1.0  0.78491  0.62414  0.43406  1.0000
  C   C112      1.0  0.80769  0.62266  0.50673  1.0000
  C   C113      1.0  0.84358  0.62149  0.49207  1.0000
  H   H53       1.0  0.79840  0.62253  0.57077  1.0000
  H   H54       1.0  0.85964  0.62053  0.54576  1.0000
  H   H55       1.0  0.73895  0.62583  0.50962  1.0000
  C   C114      1.0  0.69188  0.62974  0.38521  1.0000
  H   H56       1.0  0.68956  0.64327  0.43995  1.0000
  C   C115      1.0  0.47077  0.32000  0.40451  1.0000
  C   C116      1.0  0.47169  0.35692  0.38732  1.0000
  H   H57       1.0  0.47282  0.37450  0.44011  1.0000
  C   C117      1.0  0.46837  0.25872  0.34575  1.0000
  C   C118      1.0  0.46550  0.18400  0.37235  1.0000
  C   C119      1.0  0.46692  0.20776  0.44623  1.0000
  C   C120      1.0  0.46852  0.24534  0.43404  1.0000
  C   C121      1.0  0.46999  0.26958  0.50672  1.0000
  C   C122      1.0  0.47116  0.30665  0.49207  1.0000
  H   H58       1.0  0.47013  0.26043  0.57076  1.0000
  H   H59       1.0  0.47212  0.32367  0.54576  1.0000
  H   H60       1.0  0.46683  0.19768  0.50959  1.0000
  C   C123      1.0  0.46291  0.14670  0.38518  1.0000
  H   H61       1.0  0.44941  0.13086  0.43993  1.0000
  C   C124      1.0  0.77265  0.23533  0.40454  1.0000
  C   C125      1.0  0.73574  0.19932  0.38738  1.0000
  H   H62       1.0  0.71818  0.18288  0.44017  1.0000
  C   C126      1.0  0.83392  0.29422  0.34578  1.0000
  C   C127      1.0  0.90865  0.36608  0.37237  1.0000
  C   C128      1.0  0.88488  0.34373  0.44624  1.0000
  C   C129      1.0  0.84731  0.30775  0.43406  1.0000
  C   C130      1.0  0.82307  0.28498  0.50675  1.0000
  C   C131      1.0  0.78601  0.24908  0.49211  1.0000
  H   H63       1.0  0.83223  0.29427  0.57078  1.0000
  H   H64       1.0  0.76899  0.23302  0.54580  1.0000
  H   H65       1.0  0.89498  0.35372  0.50960  1.0000
  C   C132      1.0  0.94595  0.40078  0.38518  1.0000
  H   H66       1.0  0.96178  0.40312  0.43995  1.0000
