data_image0
_chemical_formula_structural       SiC12H9C6H3CH3NHCH3CH3C12H6CHCO4C3H2NHC5H2CNHNHSiC12H9C6H3CH3NHCH3CH3C12H6CHCO4C3H2NHC5H2CNHNHSiC12H9C6H3CH3NHCH3CH3C12H6CHCO4C3H2NHC5H2CNHNHSiC12H9C6H3CH3NHCH3CH3C12H6CHCO4C3H2NHC5H2CNHNH
_chemical_formula_sum              "Si4 C176 H144 N16 O16"
_cell_length_a       29.4938
_cell_length_b       29.4921
_cell_length_c       15.0239
_cell_angle_alpha    90
_cell_angle_beta     90
_cell_angle_gamma    90.2376

_space_group_name_H-M_alt    "P 1"
_space_group_IT_number       1

loop_
  _space_group_symop_operation_xyz
  'x, y, z'

loop_
  _atom_site_type_symbol
  _atom_site_label
  _atom_site_symmetry_multiplicity
  _atom_site_fract_x
  _atom_site_fract_y
  _atom_site_fract_z
  _atom_site_occupancy
  Si  Si1       1.0  0.49608  0.50042  0.06172  1.0000
  C   C1        1.0  0.49348  0.45905  0.13693  1.0000
  C   C2        1.0  0.99720  0.04500  0.12952  1.0000
  C   C3        1.0  0.45888  0.05319  0.18400  1.0000
  C   C4        1.0  0.46218  0.08045  0.26034  1.0000
  C   C5        1.0  0.00353  0.10151  0.28463  1.0000
  C   C6        1.0  0.04156  0.09395  0.22897  1.0000
  C   C7        1.0  0.03866  0.06600  0.15335  1.0000
  C   C8        1.0  0.03074  0.45302  0.19533  1.0000
  C   C9        1.0  0.02666  0.42672  0.27282  1.0000
  C   C10       1.0  0.48546  0.40470  0.29455  1.0000
  C   C11       1.0  0.44809  0.41121  0.23672  1.0000
  C   C12       1.0  0.45185  0.43812  0.15978  1.0000
  H   H1        1.0  0.43399  0.08363  0.29922  1.0000
  H   H2        1.0  0.42857  0.03713  0.17228  1.0000
  H   H3        1.0  0.07232  0.10840  0.24324  1.0000
  H   H4        1.0  0.06793  0.05946  0.11920  1.0000
  H   H5        1.0  0.06107  0.46914  0.18432  1.0000
  H   H6        1.0  0.05429  0.42419  0.31359  1.0000
  H   H7        1.0  0.41755  0.39589  0.24918  1.0000
  H   H8        1.0  0.42322  0.44324  0.12272  1.0000
  H   H9        1.0  0.05288  0.42571  0.01318  1.0000
  C   C13       1.0  0.00661  0.13218  0.35816  1.0000
  C   C14       1.0  0.48270  0.37285  0.36607  1.0000
  C   C15       1.0  0.48010  0.20590  0.37682  1.0000
  C   C16       1.0  0.48310  0.22966  0.29419  1.0000
  C   C17       1.0  0.49975  0.27520  0.29370  1.0000
  C   C18       1.0  0.46977  0.20733  0.20845  1.0000
  H   H10       1.0  0.45139  0.17564  0.21689  1.0000
  H   H11       1.0  0.49992  0.20036  0.16874  1.0000
  H   H12       1.0  0.44722  0.22935  0.17065  1.0000
  C   C19       1.0  0.50848  0.29876  0.20697  1.0000
  H   H13       1.0  0.52751  0.33022  0.21339  1.0000
  H   H14       1.0  0.47639  0.30646  0.17430  1.0000
  H   H15       1.0  0.02866  0.27725  0.16333  1.0000
  N   N1        1.0  0.47179  0.16033  0.38073  1.0000
  H   H16       1.0  0.44128  0.15255  0.36165  1.0000
  C   C20       1.0  0.29549  0.47746  0.22229  1.0000
  H   H17       1.0  0.33168  0.47093  0.22924  1.0000
  H   H18       1.0  0.29195  0.00744  0.18035  1.0000
  H   H19       1.0  0.28066  0.44835  0.18802  1.0000
  C   C21       1.0  0.19664  0.49561  0.22842  1.0000
  H   H20       1.0  0.16087  0.50280  0.23972  1.0000
  H   H21       1.0  0.19843  0.46305  0.19413  1.0000
  H   H22       1.0  0.20976  0.02206  0.18457  1.0000
  C   C22       1.0  0.09923  0.48386  0.50969  1.0000
  C   C23       1.0  0.08962  0.44787  0.56929  1.0000
  C   C24       1.0  0.06048  0.45371  0.64238  1.0000
  C   C25       1.0  0.04023  0.49619  0.65991  1.0000
  C   C26       1.0  0.04991  0.03234  0.60070  1.0000
  C   C27       1.0  0.07870  0.02624  0.52713  1.0000
  C   C28       1.0  0.45360  0.00139  0.65549  1.0000
  C   C29       1.0  0.43468  0.04295  0.62705  1.0000
  C   C30       1.0  0.40799  0.04527  0.54964  1.0000
  C   C31       1.0  0.39938  0.00643  0.49661  1.0000
  C   C32       1.0  0.41854  0.46499  0.52524  1.0000
  C   C33       1.0  0.44509  0.46246  0.60277  1.0000
  H   H23       1.0  0.45997  0.43201  0.61742  1.0000
  H   H24       1.0  0.41507  0.43622  0.48813  1.0000
  H   H25       1.0  0.39520  0.07623  0.53220  1.0000
  H   H26       1.0  0.44171  0.07267  0.65949  1.0000
  H   H27       1.0  0.03436  0.06316  0.60754  1.0000
  H   H28       1.0  0.10340  0.41644  0.55979  1.0000
  C   C34       1.0  0.37039  0.00948  0.42025  1.0000
  H   H29       1.0  0.08288  0.05294  0.48450  1.0000
  C   C35       1.0  0.13020  0.47728  0.43754  1.0000
  O   O1        1.0  0.44067  0.36087  0.39458  1.0000
  O   O2        1.0  0.04866  0.14399  0.38692  1.0000
  O   O3        1.0  0.35974  0.05139  0.38962  1.0000
  O   O4        1.0  0.13990  0.43406  0.41325  1.0000
  C   C36       1.0  0.00756  0.29767  0.37650  1.0000
  C   C37       1.0  0.00221  0.27418  0.45739  1.0000
  C   C38       1.0  0.98988  0.22829  0.45738  1.0000
  H   H30       1.0  0.98772  0.21129  0.51668  1.0000
  H   H31       1.0  0.00803  0.29022  0.51677  1.0000
  N   N2        1.0  0.01710  0.34292  0.38100  1.0000
  H   H32       1.0  0.04725  0.35033  0.35887  1.0000
  C   C39       1.0  0.20284  0.00144  0.39575  1.0000
  C   C40       1.0  0.22851  0.99958  0.47478  1.0000
  C   C41       1.0  0.27457  0.98964  0.47210  1.0000
  C   C42       1.0  0.29680  0.48302  0.39007  1.0000
  C   C43       1.0  0.27183  0.48482  0.30898  1.0000
  H   H33       1.0  0.29216  0.98819  0.53083  1.0000
  H   H34       1.0  0.21350  0.00484  0.53540  1.0000
  C   C44       1.0  0.22410  0.49392  0.31190  1.0000
  N   N3        1.0  0.34229  0.47482  0.39506  1.0000
  H   H35       1.0  0.34910  0.44466  0.41741  1.0000
  N   N4        1.0  0.15779  0.01096  0.40609  1.0000
  H   H36       1.0  0.15263  0.04165  0.42726  1.0000
  Si  Si2       1.0  0.49609  0.00042  0.06172  1.0000
  C   C45       1.0  0.49348  0.95905  0.13693  1.0000
  C   C46       1.0  0.99720  0.54500  0.12952  1.0000
  C   C47       1.0  0.45888  0.55320  0.18400  1.0000
  C   C48       1.0  0.46218  0.58045  0.26034  1.0000
  C   C49       1.0  0.00353  0.60151  0.28463  1.0000
  C   C50       1.0  0.04156  0.59395  0.22897  1.0000
  C   C51       1.0  0.03866  0.56600  0.15335  1.0000
  C   C52       1.0  0.03074  0.95302  0.19533  1.0000
  C   C53       1.0  0.02666  0.92673  0.27282  1.0000
  C   C54       1.0  0.48546  0.90470  0.29455  1.0000
  C   C55       1.0  0.44809  0.91121  0.23672  1.0000
  C   C56       1.0  0.45185  0.93812  0.15978  1.0000
  H   H37       1.0  0.43399  0.58363  0.29922  1.0000
  H   H38       1.0  0.42857  0.53713  0.17228  1.0000
  H   H39       1.0  0.07232  0.60840  0.24324  1.0000
  H   H40       1.0  0.06793  0.55946  0.11920  1.0000
  H   H41       1.0  0.06107  0.96914  0.18432  1.0000
  H   H42       1.0  0.05429  0.92419  0.31359  1.0000
  H   H43       1.0  0.41755  0.89588  0.24918  1.0000
  H   H44       1.0  0.42322  0.94324  0.12272  1.0000
  H   H45       1.0  0.05288  0.92571  0.01318  1.0000
  C   C57       1.0  0.00661  0.63218  0.35816  1.0000
  C   C58       1.0  0.48270  0.87284  0.36607  1.0000
  C   C59       1.0  0.48010  0.70590  0.37682  1.0000
  C   C60       1.0  0.48310  0.72966  0.29419  1.0000
  C   C61       1.0  0.49975  0.77520  0.29370  1.0000
  C   C62       1.0  0.46977  0.70733  0.20845  1.0000
  H   H46       1.0  0.45138  0.67564  0.21689  1.0000
  H   H47       1.0  0.49992  0.70036  0.16874  1.0000
  H   H48       1.0  0.44722  0.72935  0.17065  1.0000
  C   C63       1.0  0.50849  0.79876  0.20697  1.0000
  H   H49       1.0  0.52751  0.83022  0.21339  1.0000
  H   H50       1.0  0.47639  0.80647  0.17430  1.0000
  H   H51       1.0  0.02866  0.77725  0.16333  1.0000
  N   N5        1.0  0.47179  0.66033  0.38073  1.0000
  H   H52       1.0  0.44128  0.65255  0.36165  1.0000
  C   C64       1.0  0.29549  0.97746  0.22229  1.0000
  H   H53       1.0  0.33168  0.97093  0.22924  1.0000
  H   H54       1.0  0.29195  0.50744  0.18035  1.0000
  H   H55       1.0  0.28066  0.94835  0.18802  1.0000
  C   C65       1.0  0.19664  0.99561  0.22842  1.0000
  H   H56       1.0  0.16087  0.00280  0.23972  1.0000
  H   H57       1.0  0.19843  0.96305  0.19413  1.0000
  H   H58       1.0  0.20976  0.52206  0.18457  1.0000
  C   C66       1.0  0.09923  0.98386  0.50969  1.0000
  C   C67       1.0  0.08963  0.94786  0.56929  1.0000
  C   C68       1.0  0.06048  0.95371  0.64238  1.0000
  C   C69       1.0  0.04023  0.99619  0.65991  1.0000
  C   C70       1.0  0.04991  0.53235  0.60070  1.0000
  C   C71       1.0  0.07870  0.52624  0.52713  1.0000
  C   C72       1.0  0.45360  0.50139  0.65549  1.0000
  C   C73       1.0  0.43468  0.54295  0.62705  1.0000
  C   C74       1.0  0.40799  0.54527  0.54964  1.0000
  C   C75       1.0  0.39938  0.50643  0.49661  1.0000
  C   C76       1.0  0.41854  0.96500  0.52524  1.0000
  C   C77       1.0  0.44509  0.96246  0.60277  1.0000
  H   H59       1.0  0.45997  0.93201  0.61742  1.0000
  H   H60       1.0  0.41506  0.93621  0.48813  1.0000
  H   H61       1.0  0.39520  0.57623  0.53220  1.0000
  H   H62       1.0  0.44172  0.57267  0.65949  1.0000
  H   H63       1.0  0.03436  0.56316  0.60754  1.0000
  H   H64       1.0  0.10340  0.91644  0.55979  1.0000
  C   C78       1.0  0.37039  0.50948  0.42025  1.0000
  H   H65       1.0  0.08288  0.55295  0.48450  1.0000
  C   C79       1.0  0.13020  0.97728  0.43754  1.0000
  O   O5        1.0  0.44067  0.86087  0.39458  1.0000
  O   O6        1.0  0.04866  0.64399  0.38692  1.0000
  O   O7        1.0  0.35974  0.55139  0.38962  1.0000
  O   O8        1.0  0.13990  0.93406  0.41325  1.0000
  C   C80       1.0  0.00756  0.79767  0.37650  1.0000
  C   C81       1.0  0.00221  0.77418  0.45739  1.0000
  C   C82       1.0  0.98988  0.72828  0.45738  1.0000
  H   H66       1.0  0.98772  0.71129  0.51668  1.0000
  H   H67       1.0  0.00803  0.79022  0.51677  1.0000
  N   N6        1.0  0.01710  0.84292  0.38100  1.0000
  H   H68       1.0  0.04725  0.85033  0.35887  1.0000
  C   C83       1.0  0.20284  0.50144  0.39575  1.0000
  C   C84       1.0  0.22851  0.49958  0.47478  1.0000
  C   C85       1.0  0.27457  0.48963  0.47210  1.0000
  C   C86       1.0  0.29680  0.98302  0.39007  1.0000
  C   C87       1.0  0.27183  0.98482  0.30898  1.0000
  H   H69       1.0  0.29216  0.48819  0.53083  1.0000
  H   H70       1.0  0.21350  0.50484  0.53540  1.0000
  C   C88       1.0  0.22410  0.99392  0.31190  1.0000
  N   N7        1.0  0.34229  0.97482  0.39506  1.0000
  H   H71       1.0  0.34910  0.94466  0.41741  1.0000
  N   N8        1.0  0.15779  0.51096  0.40609  1.0000
  H   H72       1.0  0.15263  0.54165  0.42726  1.0000
  Si  Si3       1.0  0.99608  0.50042  0.06172  1.0000
  C   C89       1.0  0.99348  0.45905  0.13693  1.0000
  C   C90       1.0  0.49720  0.04500  0.12952  1.0000
  C   C91       1.0  0.95888  0.05319  0.18400  1.0000
  C   C92       1.0  0.96218  0.08045  0.26034  1.0000
  C   C93       1.0  0.50353  0.10151  0.28463  1.0000
  C   C94       1.0  0.54156  0.09395  0.22897  1.0000
  C   C95       1.0  0.53865  0.06600  0.15335  1.0000
  C   C96       1.0  0.53074  0.45302  0.19533  1.0000
  C   C97       1.0  0.52666  0.42672  0.27282  1.0000
  C   C98       1.0  0.98546  0.40470  0.29455  1.0000
  C   C99       1.0  0.94809  0.41121  0.23672  1.0000
  C   C100      1.0  0.95185  0.43812  0.15978  1.0000
  H   H73       1.0  0.93399  0.08363  0.29922  1.0000
  H   H74       1.0  0.92857  0.03713  0.17228  1.0000
  H   H75       1.0  0.57232  0.10840  0.24324  1.0000
  H   H76       1.0  0.56793  0.05946  0.11920  1.0000
  H   H77       1.0  0.56107  0.46914  0.18432  1.0000
  H   H78       1.0  0.55429  0.42419  0.31359  1.0000
  H   H79       1.0  0.91755  0.39589  0.24918  1.0000
  H   H80       1.0  0.92322  0.44324  0.12272  1.0000
  H   H81       1.0  0.55288  0.42571  0.01318  1.0000
  C   C101      1.0  0.50661  0.13218  0.35816  1.0000
  C   C102      1.0  0.98270  0.37285  0.36607  1.0000
  C   C103      1.0  0.98010  0.20590  0.37682  1.0000
  C   C104      1.0  0.98310  0.22966  0.29419  1.0000
  C   C105      1.0  0.99975  0.27520  0.29370  1.0000
  C   C106      1.0  0.96977  0.20733  0.20845  1.0000
  H   H82       1.0  0.95138  0.17564  0.21689  1.0000
  H   H83       1.0  0.99992  0.20036  0.16874  1.0000
  H   H84       1.0  0.94722  0.22935  0.17065  1.0000
  C   C107      1.0  0.00849  0.29876  0.20697  1.0000
  H   H85       1.0  0.02751  0.33022  0.21339  1.0000
  H   H86       1.0  0.97639  0.30646  0.17430  1.0000
  H   H87       1.0  0.52866  0.27725  0.16333  1.0000
  N   N9        1.0  0.97179  0.16033  0.38073  1.0000
  H   H88       1.0  0.94127  0.15255  0.36165  1.0000
  C   C108      1.0  0.79549  0.47746  0.22229  1.0000
  H   H89       1.0  0.83168  0.47093  0.22924  1.0000
  H   H90       1.0  0.79195  0.00744  0.18035  1.0000
  H   H91       1.0  0.78066  0.44835  0.18802  1.0000
  C   C109      1.0  0.69664  0.49561  0.22842  1.0000
  H   H92       1.0  0.66087  0.50280  0.23972  1.0000
  H   H93       1.0  0.69843  0.46305  0.19413  1.0000
  H   H94       1.0  0.70976  0.02206  0.18457  1.0000
  C   C110      1.0  0.59923  0.48386  0.50969  1.0000
  C   C111      1.0  0.58962  0.44787  0.56929  1.0000
  C   C112      1.0  0.56048  0.45371  0.64238  1.0000
  C   C113      1.0  0.54023  0.49619  0.65991  1.0000
  C   C114      1.0  0.54991  0.03234  0.60070  1.0000
  C   C115      1.0  0.57870  0.02624  0.52713  1.0000
  C   C116      1.0  0.95360  0.00139  0.65549  1.0000
  C   C117      1.0  0.93468  0.04295  0.62705  1.0000
  C   C118      1.0  0.90799  0.04527  0.54964  1.0000
  C   C119      1.0  0.89938  0.00643  0.49661  1.0000
  C   C120      1.0  0.91854  0.46499  0.52524  1.0000
  C   C121      1.0  0.94509  0.46246  0.60277  1.0000
  H   H95       1.0  0.95997  0.43201  0.61742  1.0000
  H   H96       1.0  0.91507  0.43622  0.48813  1.0000
  H   H97       1.0  0.89520  0.07623  0.53220  1.0000
  H   H98       1.0  0.94171  0.07267  0.65949  1.0000
  H   H99       1.0  0.53436  0.06316  0.60754  1.0000
  H   H100      1.0  0.60340  0.41644  0.55979  1.0000
  C   C122      1.0  0.87039  0.00948  0.42025  1.0000
  H   H101      1.0  0.58288  0.05294  0.48450  1.0000
  C   C123      1.0  0.63020  0.47728  0.43754  1.0000
  O   O9        1.0  0.94067  0.36087  0.39458  1.0000
  O   O10       1.0  0.54866  0.14399  0.38692  1.0000
  O   O11       1.0  0.85974  0.05139  0.38962  1.0000
  O   O12       1.0  0.63990  0.43406  0.41325  1.0000
  C   C124      1.0  0.50756  0.29767  0.37650  1.0000
  C   C125      1.0  0.50221  0.27418  0.45739  1.0000
  C   C126      1.0  0.48988  0.22829  0.45738  1.0000
  H   H102      1.0  0.48772  0.21129  0.51668  1.0000
  H   H103      1.0  0.50803  0.29022  0.51677  1.0000
  N   N10       1.0  0.51710  0.34292  0.38100  1.0000
  H   H104      1.0  0.54725  0.35033  0.35887  1.0000
  C   C127      1.0  0.70284  0.00144  0.39575  1.0000
  C   C128      1.0  0.72850  0.99958  0.47478  1.0000
  C   C129      1.0  0.77456  0.98964  0.47210  1.0000
  C   C130      1.0  0.79680  0.48302  0.39007  1.0000
  C   C131      1.0  0.77183  0.48482  0.30898  1.0000
  H   H105      1.0  0.79216  0.98819  0.53083  1.0000
  H   H106      1.0  0.71350  0.00484  0.53540  1.0000
  C   C132      1.0  0.72410  0.49392  0.31190  1.0000
  N   N11       1.0  0.84229  0.47482  0.39506  1.0000
  H   H107      1.0  0.84910  0.44466  0.41741  1.0000
  N   N12       1.0  0.65779  0.01096  0.40609  1.0000
  H   H108      1.0  0.65263  0.04165  0.42726  1.0000
  Si  Si4       1.0  0.99608  0.00042  0.06172  1.0000
  C   C133      1.0  0.99348  0.95905  0.13693  1.0000
  C   C134      1.0  0.49720  0.54500  0.12952  1.0000
  C   C135      1.0  0.95888  0.55320  0.18400  1.0000
  C   C136      1.0  0.96218  0.58045  0.26034  1.0000
  C   C137      1.0  0.50353  0.60151  0.28463  1.0000
  C   C138      1.0  0.54156  0.59395  0.22897  1.0000
  C   C139      1.0  0.53866  0.56600  0.15335  1.0000
  C   C140      1.0  0.53073  0.95302  0.19533  1.0000
  C   C141      1.0  0.52666  0.92673  0.27282  1.0000
  C   C142      1.0  0.98546  0.90470  0.29455  1.0000
  C   C143      1.0  0.94809  0.91121  0.23672  1.0000
  C   C144      1.0  0.95185  0.93812  0.15978  1.0000
  H   H109      1.0  0.93399  0.58363  0.29922  1.0000
  H   H110      1.0  0.92857  0.53713  0.17228  1.0000
  H   H111      1.0  0.57232  0.60840  0.24324  1.0000
  H   H112      1.0  0.56793  0.55946  0.11920  1.0000
  H   H113      1.0  0.56107  0.96914  0.18432  1.0000
  H   H114      1.0  0.55429  0.92419  0.31359  1.0000
  H   H115      1.0  0.91755  0.89588  0.24918  1.0000
  H   H116      1.0  0.92322  0.94324  0.12272  1.0000
  H   H117      1.0  0.55288  0.92571  0.01318  1.0000
  C   C145      1.0  0.50661  0.63218  0.35816  1.0000
  C   C146      1.0  0.98270  0.87284  0.36607  1.0000
  C   C147      1.0  0.98010  0.70590  0.37682  1.0000
  C   C148      1.0  0.98310  0.72966  0.29419  1.0000
  C   C149      1.0  0.99975  0.77520  0.29370  1.0000
  C   C150      1.0  0.96977  0.70733  0.20845  1.0000
  H   H118      1.0  0.95139  0.67564  0.21689  1.0000
  H   H119      1.0  0.99992  0.70036  0.16874  1.0000
  H   H120      1.0  0.94722  0.72935  0.17065  1.0000
  C   C151      1.0  0.00849  0.79876  0.20697  1.0000
  H   H121      1.0  0.02751  0.83022  0.21339  1.0000
  H   H122      1.0  0.97639  0.80647  0.17430  1.0000
  H   H123      1.0  0.52867  0.77725  0.16333  1.0000
  N   N13       1.0  0.97179  0.66033  0.38073  1.0000
  H   H124      1.0  0.94128  0.65255  0.36165  1.0000
  C   C152      1.0  0.79549  0.97746  0.22229  1.0000
  H   H125      1.0  0.83168  0.97093  0.22924  1.0000
  H   H126      1.0  0.79195  0.50744  0.18035  1.0000
  H   H127      1.0  0.78066  0.94835  0.18802  1.0000
  C   C153      1.0  0.69664  0.99561  0.22842  1.0000
  H   H128      1.0  0.66087  0.00280  0.23972  1.0000
  H   H129      1.0  0.69843  0.96305  0.19413  1.0000
  H   H130      1.0  0.70976  0.52206  0.18457  1.0000
  C   C154      1.0  0.59923  0.98386  0.50969  1.0000
  C   C155      1.0  0.58962  0.94786  0.56929  1.0000
  C   C156      1.0  0.56047  0.95371  0.64238  1.0000
  C   C157      1.0  0.54023  0.99619  0.65991  1.0000
  C   C158      1.0  0.54991  0.53235  0.60070  1.0000
  C   C159      1.0  0.57870  0.52624  0.52713  1.0000
  C   C160      1.0  0.95360  0.50139  0.65549  1.0000
  C   C161      1.0  0.93468  0.54295  0.62705  1.0000
  C   C162      1.0  0.90799  0.54527  0.54964  1.0000
  C   C163      1.0  0.89938  0.50643  0.49661  1.0000
  C   C164      1.0  0.91854  0.96500  0.52524  1.0000
  C   C165      1.0  0.94509  0.96246  0.60277  1.0000
  H   H131      1.0  0.95997  0.93201  0.61742  1.0000
  H   H132      1.0  0.91506  0.93621  0.48813  1.0000
  H   H133      1.0  0.89520  0.57623  0.53220  1.0000
  H   H134      1.0  0.94171  0.57267  0.65949  1.0000
  H   H135      1.0  0.53436  0.56316  0.60754  1.0000
  H   H136      1.0  0.60340  0.91644  0.55979  1.0000
  C   C166      1.0  0.87039  0.50948  0.42025  1.0000
  H   H137      1.0  0.58288  0.55295  0.48450  1.0000
  C   C167      1.0  0.63020  0.97728  0.43754  1.0000
  O   O13       1.0  0.94067  0.86087  0.39458  1.0000
  O   O14       1.0  0.54866  0.64399  0.38692  1.0000
  O   O15       1.0  0.85974  0.55139  0.38962  1.0000
  O   O16       1.0  0.63990  0.93406  0.41325  1.0000
  C   C168      1.0  0.50756  0.79767  0.37650  1.0000
  C   C169      1.0  0.50221  0.77418  0.45739  1.0000
  C   C170      1.0  0.48988  0.72828  0.45738  1.0000
  H   H138      1.0  0.48772  0.71129  0.51668  1.0000
  H   H139      1.0  0.50803  0.79022  0.51677  1.0000
  N   N14       1.0  0.51710  0.84292  0.38100  1.0000
  H   H140      1.0  0.54725  0.85033  0.35887  1.0000
  C   C171      1.0  0.70284  0.50144  0.39575  1.0000
  C   C172      1.0  0.72851  0.49958  0.47478  1.0000
  C   C173      1.0  0.77456  0.48963  0.47210  1.0000
  C   C174      1.0  0.79680  0.98302  0.39007  1.0000
  C   C175      1.0  0.77183  0.98482  0.30898  1.0000
  H   H141      1.0  0.79216  0.48819  0.53083  1.0000
  H   H142      1.0  0.71350  0.50484  0.53540  1.0000
  C   C176      1.0  0.72410  0.99392  0.31190  1.0000
  N   N15       1.0  0.84229  0.97482  0.39506  1.0000
  H   H143      1.0  0.84910  0.94466  0.41741  1.0000
  N   N16       1.0  0.65779  0.51096  0.40609  1.0000
  H   H144      1.0  0.65263  0.54165  0.42726  1.0000
