data_image0
_chemical_formula_structural       C13H9C13H9C13H9C13H9C3H3NC3H3NC3H3NC2H3NC3H3NC3H3NC18H12C17H12C17H12C17H12C2H3NC3H3NC3H3NC4H3NC3H3NC3H3N
_chemical_formula_sum              "C156 H120 N12"
_cell_length_a       56.934
_cell_length_b       56.9172
_cell_length_c       14.9749
_cell_angle_alpha    90
_cell_angle_beta     90
_cell_angle_gamma    120.005

_space_group_name_H-M_alt    "P 1"
_space_group_IT_number       1

loop_
  _space_group_symop_operation_xyz
  'x, y, z'

loop_
  _atom_site_type_symbol
  _atom_site_label
  _atom_site_symmetry_multiplicity
  _atom_site_fract_x
  _atom_site_fract_y
  _atom_site_fract_z
  _atom_site_occupancy
  C   C1        1.0  0.91023  0.83643  0.34133  1.0000
  C   C2        1.0  0.93763  0.89426  0.32950  1.0000
  C   C3        1.0  0.90984  0.87837  0.30720  1.0000
  C   C4        1.0  0.89637  0.84987  0.31259  1.0000
  C   C5        1.0  0.95049  0.92240  0.32245  1.0000
  C   C6        1.0  0.06642  0.02854  0.32724  1.0000
  C   C7        1.0  0.11043  0.03195  0.31147  1.0000
  C   C8        1.0  0.15239  0.07433  0.34518  1.0000
  C   C9        1.0  0.13893  0.04702  0.31630  1.0000
  C   C10       1.0  0.96431  0.04270  0.32936  1.0000
  C   C11       1.0  0.92029  0.03974  0.31104  1.0000
  C   C12       1.0  0.91536  0.07927  0.34384  1.0000
  C   C13       1.0  0.90422  0.05211  0.31491  1.0000
  H   H1        1.0  0.87621  0.83902  0.29644  1.0000
  H   H2        1.0  0.89905  0.88743  0.28713  1.0000
  H   H3        1.0  0.91162  0.02001  0.29004  1.0000
  H   H4        1.0  0.10138  0.01214  0.29112  1.0000
  H   H5        1.0  0.14977  0.03775  0.29959  1.0000
  H   H6        1.0  0.88418  0.04100  0.29734  1.0000
  H   H7        1.0  0.05885  0.01641  0.27432  1.0000
  H   H8        1.0  0.94599  0.93003  0.26957  1.0000
  H   H9        1.0  0.98025  0.05142  0.28876  1.0000
  C   C14       1.0  0.52500  0.36686  0.31124  1.0000
  C   C15       1.0  0.48409  0.31090  0.31515  1.0000
  C   C16       1.0  0.50933  0.31940  0.27310  1.0000
  C   C17       1.0  0.52953  0.34691  0.27174  1.0000
  C   C18       1.0  0.46500  0.28336  0.31607  1.0000
  C   C19       1.0  0.35203  0.18464  0.33676  1.0000
  C   C20       1.0  0.30758  0.18021  0.35205  1.0000
  C   C21       1.0  0.26639  0.13592  0.33465  1.0000
  C   C22       1.0  0.27911  0.16408  0.35166  1.0000
  C   C23       1.0  0.45728  0.17070  0.34303  1.0000
  C   C24       1.0  0.50207  0.18245  0.29329  1.0000
  C   C25       1.0  0.52207  0.15448  0.33404  1.0000
  C   C26       1.0  0.52382  0.17742  0.29089  1.0000
  H   H10       1.0  0.54779  0.35217  0.24270  1.0000
  H   H11       1.0  0.51349  0.30555  0.24434  1.0000
  H   H12       1.0  0.50423  0.19954  0.26277  1.0000
  H   H13       1.0  0.31620  0.20061  0.36344  1.0000
  H   H14       1.0  0.26772  0.17317  0.36221  1.0000
  H   H15       1.0  0.54127  0.19111  0.25892  1.0000
  H   H16       1.0  0.35997  0.19976  0.29276  1.0000
  H   H17       1.0  0.46317  0.27292  0.26050  1.0000
  H   H18       1.0  0.44457  0.16524  0.29153  1.0000
  C   C27       1.0  0.62222  0.15896  0.31047  1.0000
  C   C28       1.0  0.67821  0.17419  0.31457  1.0000
  C   C29       1.0  0.66964  0.19088  0.27252  1.0000
  C   C30       1.0  0.64212  0.18349  0.27109  1.0000
  C   C31       1.0  0.70579  0.18280  0.31589  1.0000
  C   C32       1.0  0.80702  0.17095  0.33334  1.0000
  C   C33       1.0  0.80994  0.13030  0.31047  1.0000
  C   C34       1.0  0.85286  0.13070  0.33115  1.0000
  C   C35       1.0  0.82499  0.11681  0.30918  1.0000
  C   C36       1.0  0.81865  0.28695  0.34541  1.0000
  C   C37       1.0  0.80691  0.31994  0.29477  1.0000
  C   C38       1.0  0.83473  0.36794  0.33557  1.0000
  C   C39       1.0  0.81189  0.34672  0.29213  1.0000
  H   H19       1.0  0.63681  0.19648  0.24216  1.0000
  H   H20       1.0  0.68346  0.20895  0.24398  1.0000
  H   H21       1.0  0.78987  0.30499  0.26411  1.0000
  H   H22       1.0  0.78978  0.11959  0.29409  1.0000
  H   H23       1.0  0.81528  0.09662  0.29334  1.0000
  H   H24       1.0  0.79823  0.35044  0.25982  1.0000
  H   H25       1.0  0.79482  0.16730  0.28116  1.0000
  H   H26       1.0  0.71635  0.19174  0.26081  1.0000
  H   H27       1.0  0.82382  0.27958  0.29354  1.0000
  C   C40       1.0  0.83027  0.46367  0.31133  1.0000
  C   C41       1.0  0.81514  0.50453  0.31517  1.0000
  C   C42       1.0  0.79850  0.47931  0.27276  1.0000
  C   C43       1.0  0.80584  0.45914  0.27147  1.0000
  C   C44       1.0  0.80657  0.52353  0.31630  1.0000
  C   C45       1.0  0.82115  0.63674  0.33696  1.0000
  C   C46       1.0  0.86107  0.68129  0.35217  1.0000
  C   C47       1.0  0.85786  0.72238  0.33340  1.0000
  C   C48       1.0  0.87334  0.70976  0.35129  1.0000
  C   C49       1.0  0.70188  0.53164  0.34307  1.0000
  C   C50       1.0  0.66876  0.48690  0.29312  1.0000
  C   C51       1.0  0.62082  0.46692  0.33425  1.0000
  C   C52       1.0  0.64196  0.46516  0.29083  1.0000
  H   H28       1.0  0.79288  0.44088  0.24233  1.0000
  H   H29       1.0  0.78050  0.47512  0.24387  1.0000
  H   H30       1.0  0.68365  0.48471  0.26247  1.0000
  H   H31       1.0  0.87289  0.67274  0.36414  1.0000
  H   H32       1.0  0.89380  0.72121  0.36201  1.0000
  H   H33       1.0  0.63816  0.44770  0.25879  1.0000
  H   H34       1.0  0.82834  0.62878  0.29304  1.0000
  H   H35       1.0  0.79784  0.52526  0.26086  1.0000
  H   H36       1.0  0.70916  0.54438  0.29163  1.0000
  C   C53       1.0  0.23773  0.11986  0.33461  1.0000
  C   C54       1.0  0.22187  0.10508  0.26006  1.0000
  C   C55       1.0  0.23311  0.10542  0.17071  1.0000
  H   H37       1.0  0.24520  0.12628  0.14714  1.0000
  H   H38       1.0  0.21699  0.09413  0.12223  1.0000
  H   H39       1.0  0.24586  0.09616  0.17364  1.0000
  N   N1        1.0  0.19449  0.09091  0.27061  1.0000
  C   C56       1.0  0.86809  0.11719  0.33131  1.0000
  C   C57       1.0  0.87214  0.10454  0.25592  1.0000
  C   C58       1.0  0.86220  0.10499  0.16500  1.0000
  H   H40       1.0  0.84011  0.09350  0.16340  1.0000
  H   H41       1.0  0.86969  0.09598  0.11641  1.0000
  H   H42       1.0  0.86917  0.12588  0.14476  1.0000
  N   N2        1.0  0.88759  0.09271  0.26717  1.0000
  C   C59       1.0  0.87039  0.75104  0.33274  1.0000
  C   C60       1.0  0.87132  0.76675  0.25793  1.0000
  C   C61       1.0  0.86031  0.75534  0.16882  1.0000
  H   H43       1.0  0.86904  0.74319  0.14546  1.0000
  H   H44       1.0  0.86512  0.77138  0.12001  1.0000
  H   H45       1.0  0.83832  0.74262  0.17204  1.0000
  N   N3        1.0  0.88454  0.79416  0.26788  1.0000
  C   C62       1.0  0.58795  0.15297  0.14212  1.0000
  C   C63       1.0  0.57982  0.15239  0.23629  1.0000
  H   H46       1.0  0.57158  0.13603  0.10601  1.0000
  H   H47       1.0  0.60608  0.15122  0.13553  1.0000
  H   H48       1.0  0.59179  0.17191  0.11102  1.0000
  N   N4        1.0  0.55602  0.15188  0.25050  1.0000
  C   C64       1.0  0.59479  0.15270  0.31246  1.0000
  C   C65       1.0  0.83632  0.43532  0.14325  1.0000
  C   C66       1.0  0.83680  0.42777  0.23748  1.0000
  H   H49       1.0  0.85326  0.43586  0.10734  1.0000
  H   H50       1.0  0.83811  0.45522  0.13654  1.0000
  H   H51       1.0  0.81740  0.42023  0.11203  1.0000
  N   N5        1.0  0.83731  0.40448  0.25182  1.0000
  C   C67       1.0  0.83645  0.44244  0.31357  1.0000
  C   C68       1.0  0.55325  0.40107  0.14271  1.0000
  C   C69       1.0  0.56086  0.40921  0.23684  1.0000
  H   H52       1.0  0.55273  0.41746  0.10659  1.0000
  H   H53       1.0  0.53333  0.38297  0.13623  1.0000
  H   H54       1.0  0.56829  0.39716  0.11154  1.0000
  N   N6        1.0  0.58420  0.43298  0.25091  1.0000
  C   C70       1.0  0.54619  0.39428  0.31306  1.0000
  C   C71       1.0  0.93819  0.85221  0.36122  1.0000
  C   C72       1.0  0.95169  0.88070  0.35543  1.0000
  C   C73       1.0  0.96752  0.93968  0.38428  1.0000
  C   C74       1.0  0.97968  0.96768  0.37783  1.0000
  C   C75       1.0  0.96393  0.98057  0.37558  1.0000
  C   C76       1.0  0.97624  0.00919  0.37555  1.0000
  C   C77       1.0  0.00490  0.02489  0.37948  1.0000
  C   C78       1.0  0.02108  0.01249  0.38100  1.0000
  C   C79       1.0  0.00823  0.98386  0.38115  1.0000
  C   C80       1.0  0.04904  0.02833  0.38858  1.0000
  C   C81       1.0  0.09455  0.04381  0.33445  1.0000
  C   C82       1.0  0.10811  0.07142  0.36056  1.0000
  C   C83       1.0  0.13661  0.08644  0.36585  1.0000
  C   C84       1.0  0.96000  0.02109  0.37838  1.0000
  C   C85       1.0  0.94804  0.05439  0.33471  1.0000
  C   C86       1.0  0.95940  0.08178  0.36113  1.0000
  C   C87       1.0  0.94324  0.09405  0.36578  1.0000
  H   H55       1.0  0.94905  0.84305  0.37906  1.0000
  H   H56       1.0  0.97200  0.89144  0.36945  1.0000
  H   H57       1.0  0.01980  0.97470  0.38519  1.0000
  H   H58       1.0  0.94318  0.96891  0.37561  1.0000
  H   H59       1.0  0.01413  0.04563  0.38259  1.0000
  H   H60       1.0  0.14577  0.10647  0.38371  1.0000
  H   H61       1.0  0.09739  0.08097  0.37495  1.0000
  H   H62       1.0  0.95209  0.11400  0.38435  1.0000
  H   H63       1.0  0.97953  0.09304  0.37743  1.0000
  H   H64       1.0  0.05623  0.04012  0.44228  1.0000
  H   H65       1.0  0.97196  0.93233  0.43795  1.0000
  H   H66       1.0  0.94396  0.01266  0.41883  1.0000
  C   C88       1.0  0.49998  0.35841  0.35467  1.0000
  C   C89       1.0  0.47964  0.33082  0.35566  1.0000
  C   C90       1.0  0.45217  0.26948  0.39011  1.0000
  C   C91       1.0  0.43868  0.24139  0.39225  1.0000
  C   C92       1.0  0.45394  0.22809  0.39790  1.0000
  C   C93       1.0  0.44113  0.19951  0.40018  1.0000
  C   C94       1.0  0.41250  0.18418  0.39768  1.0000
  C   C95       1.0  0.39668  0.19701  0.39233  1.0000
  C   C96       1.0  0.41009  0.22575  0.39059  1.0000
  C   C97       1.0  0.36852  0.18118  0.39286  1.0000
  C   C98       1.0  0.32401  0.16842  0.33783  1.0000
  C   C99       1.0  0.31129  0.14018  0.32198  1.0000
  C   C100      1.0  0.28282  0.12412  0.32069  1.0000
  C   C101      1.0  0.45719  0.18757  0.40565  1.0000
  C   C102      1.0  0.47790  0.16457  0.33880  1.0000
  C   C103      1.0  0.47572  0.14131  0.38051  1.0000
  C   C104      1.0  0.49761  0.13632  0.37802  1.0000
  H   H67       1.0  0.49628  0.37235  0.38506  1.0000
  H   H68       1.0  0.46162  0.32538  0.38673  1.0000
  H   H69       1.0  0.39899  0.23541  0.38842  1.0000
  H   H70       1.0  0.47473  0.23944  0.39966  1.0000
  H   H71       1.0  0.40310  0.16341  0.40007  1.0000
  H   H72       1.0  0.27420  0.10368  0.31046  1.0000
  H   H73       1.0  0.32265  0.13109  0.31092  1.0000
  H   H74       1.0  0.49545  0.11920  0.40800  1.0000
  H   H75       1.0  0.45835  0.12801  0.41361  1.0000
  H   H76       1.0  0.36027  0.16588  0.43630  1.0000
  H   H77       1.0  0.45530  0.27910  0.44813  1.0000
  H   H78       1.0  0.47157  0.19463  0.45245  1.0000
  C   C105      1.0  0.63072  0.14242  0.35378  1.0000
  C   C106      1.0  0.65832  0.14976  0.35487  1.0000
  C   C107      1.0  0.71954  0.18337  0.38967  1.0000
  C   C108      1.0  0.74762  0.19785  0.39254  1.0000
  C   C109      1.0  0.76106  0.22643  0.39849  1.0000
  C   C110      1.0  0.78964  0.24204  0.40257  1.0000
  C   C111      1.0  0.80484  0.22858  0.40194  1.0000
  C   C112      1.0  0.79179  0.19995  0.39628  1.0000
  C   C113      1.0  0.76310  0.18473  0.39228  1.0000
  C   C114      1.0  0.80716  0.18723  0.39875  1.0000
  C   C115      1.0  0.82224  0.15796  0.33491  1.0000
  C   C116      1.0  0.85013  0.17180  0.35738  1.0000
  C   C117      1.0  0.86514  0.15827  0.35652  1.0000
  C   C118      1.0  0.80171  0.27005  0.40805  1.0000
  C   C119      1.0  0.82472  0.31368  0.34090  1.0000
  C   C120      1.0  0.84790  0.33481  0.38284  1.0000
  C   C121      1.0  0.85284  0.36168  0.38004  1.0000
  H   H79       1.0  0.61682  0.12476  0.38414  1.0000
  H   H80       1.0  0.66380  0.13720  0.38591  1.0000
  H   H81       1.0  0.75341  0.16396  0.38961  1.0000
  H   H82       1.0  0.74984  0.23601  0.39927  1.0000
  H   H83       1.0  0.82558  0.23977  0.40589  1.0000
  H   H84       1.0  0.88530  0.16889  0.37289  1.0000
  H   H85       1.0  0.85985  0.19194  0.37398  1.0000
  H   H86       1.0  0.86990  0.37666  0.41017  1.0000
  H   H87       1.0  0.86116  0.33078  0.41631  1.0000
  H   H88       1.0  0.81918  0.19096  0.45143  1.0000
  H   H89       1.0  0.70981  0.17640  0.44727  1.0000
  H   H90       1.0  0.79481  0.27747  0.45507  1.0000
  C   C122      1.0  0.84675  0.48867  0.35506  1.0000
  C   C123      1.0  0.83946  0.50898  0.35602  1.0000
  C   C124      1.0  0.80565  0.53649  0.39017  1.0000
  C   C125      1.0  0.79112  0.55005  0.39242  1.0000
  C   C126      1.0  0.76256  0.53482  0.39797  1.0000
  C   C127      1.0  0.74683  0.54767  0.40026  1.0000
  C   C128      1.0  0.76018  0.57632  0.39786  1.0000
  C   C129      1.0  0.78883  0.59210  0.39263  1.0000
  C   C130      1.0  0.80412  0.57865  0.39088  1.0000
  C   C131      1.0  0.80120  0.62028  0.39310  1.0000
  C   C132      1.0  0.83289  0.66476  0.33765  1.0000
  C   C133      1.0  0.81732  0.67738  0.32100  1.0000
  C   C134      1.0  0.82965  0.70585  0.31919  1.0000
  C   C135      1.0  0.71883  0.53163  0.40555  1.0000
  C   C136      1.0  0.67513  0.51106  0.33881  1.0000
  C   C137      1.0  0.65409  0.51325  0.38079  1.0000
  C   C138      1.0  0.62719  0.49138  0.37837  1.0000
  H   H91       1.0  0.86433  0.49236  0.38582  1.0000
  H   H92       1.0  0.85197  0.52698  0.38740  1.0000
  H   H93       1.0  0.82488  0.58973  0.38874  1.0000
  H   H94       1.0  0.75307  0.51402  0.39963  1.0000
  H   H95       1.0  0.74885  0.58575  0.40021  1.0000
  H   H96       1.0  0.81779  0.71439  0.30845  1.0000
  H   H97       1.0  0.79688  0.66594  0.30972  1.0000
  H   H98       1.0  0.61228  0.49356  0.40852  1.0000
  H   H99       1.0  0.65821  0.53062  0.41401  1.0000
  H   H100      1.0  0.79412  0.62854  0.43633  1.0000
  H   H101      1.0  0.81245  0.53366  0.44801  1.0000
  H   H102      1.0  0.71146  0.51725  0.45236  1.0000
  C   C139      1.0  0.18681  0.10432  0.51289  1.0000
  C   C140      1.0  0.19708  0.10428  0.42217  1.0000
  H   H103      1.0  0.19717  0.09833  0.56133  1.0000
  H   H104      1.0  0.16511  0.09033  0.51964  1.0000
  H   H105      1.0  0.19094  0.12473  0.52921  1.0000
  N   N7        1.0  0.22445  0.11864  0.41138  1.0000
  C   C141      1.0  0.18114  0.08957  0.34745  1.0000
  C   C142      1.0  0.90505  0.10479  0.51246  1.0000
  C   C143      1.0  0.89520  0.10449  0.42081  1.0000
  H   H106      1.0  0.91935  0.12565  0.53191  1.0000
  H   H107      1.0  0.91504  0.09280  0.51888  1.0000
  H   H108      1.0  0.88795  0.09645  0.55876  1.0000
  N   N8        1.0  0.87991  0.11649  0.40937  1.0000
  C   C144      1.0  0.89923  0.09180  0.34540  1.0000
  C   C145      1.0  0.90614  0.80238  0.50971  1.0000
  C   C146      1.0  0.89563  0.79190  0.41932  1.0000
  H   H109      1.0  0.88990  0.79211  0.55857  1.0000
  H   H110      1.0  0.91385  0.82409  0.51600  1.0000
  H   H111      1.0  0.92246  0.79830  0.52582  1.0000
  N   N9        1.0  0.88262  0.76450  0.40913  1.0000
  C   C147      1.0  0.89668  0.80768  0.34434  1.0000
  C   C148      1.0  0.54486  0.15065  0.33184  1.0000
  C   C149      1.0  0.55932  0.14987  0.40796  1.0000
  C   C150      1.0  0.55103  0.15029  0.50130  1.0000
  H   H112      1.0  0.54807  0.16762  0.51166  1.0000
  H   H113      1.0  0.56640  0.15190  0.54846  1.0000
  H   H114      1.0  0.53219  0.13163  0.51603  1.0000
  N   N10       1.0  0.58371  0.15149  0.39396  1.0000
  C   C151      1.0  0.83848  0.39454  0.33322  1.0000
  C   C152      1.0  0.83926  0.40981  0.40927  1.0000
  C   C153      1.0  0.83882  0.40115  0.50267  1.0000
  H   H115      1.0  0.82153  0.38085  0.51306  1.0000
  H   H116      1.0  0.83716  0.41492  0.54971  1.0000
  H   H117      1.0  0.85750  0.40102  0.51759  1.0000
  N   N11       1.0  0.83765  0.43259  0.39511  1.0000
  C   C154      1.0  0.59419  0.44413  0.33220  1.0000
  C   C155      1.0  0.57896  0.42974  0.40842  1.0000
  C   C156      1.0  0.58774  0.43799  0.50173  1.0000
  H   H118      1.0  0.60800  0.44088  0.51188  1.0000
  H   H119      1.0  0.57398  0.42262  0.54893  1.0000
  H   H120      1.0  0.58801  0.45687  0.51662  1.0000
  N   N12       1.0  0.55614  0.40537  0.39451  1.0000
