data_image0
_chemical_formula_structural       C15H12C2NC2NC2NC2NC2NC2NC5NC3NC17H14NCHNCHC15H12C2NC2NC2NC2NC2NC2NC5NC3NC17H14NCHNCHC15H12C2NC2NC2NC2NC2NC2NC5NC3NC17H14NCHNCHC15H12C2NC2NC2NC2NC2NC2NC5NC3NC17H14NCHNCH
_chemical_formula_sum              "C216 H112 N40"
_cell_length_a       42.617
_cell_length_b       42.617
_cell_length_c       14.9205
_cell_angle_alpha    90
_cell_angle_beta     90
_cell_angle_gamma    90

_space_group_name_H-M_alt    "P 1"
_space_group_IT_number       1

loop_
  _space_group_symop_operation_xyz
  'x, y, z'

loop_
  _atom_site_type_symbol
  _atom_site_label
  _atom_site_symmetry_multiplicity
  _atom_site_fract_x
  _atom_site_fract_y
  _atom_site_fract_z
  _atom_site_occupancy
  C   C1        1.0  0.43610  0.47375  0.33939  1.0000
  C   C2        1.0  0.03272  0.43549  0.33747  1.0000
  C   C3        1.0  0.50217  0.08519  0.34213  1.0000
  C   C4        1.0  0.47245  0.07009  0.34182  1.0000
  C   C5        1.0  0.42036  0.06206  0.34262  1.0000
  C   C6        1.0  0.44325  0.08498  0.34252  1.0000
  C   C7        1.0  0.33665  0.50127  0.26118  1.0000
  C   C8        1.0  0.36969  0.50120  0.26053  1.0000
  C   C9        1.0  0.50243  0.11868  0.34243  1.0000
  C   C10       1.0  0.50078  0.16862  0.26157  1.0000
  C   C11       1.0  0.50063  0.13559  0.26129  1.0000
  C   C12       1.0  0.13485  0.01071  0.25743  1.0000
  C   C13       1.0  0.16787  0.01079  0.25515  1.0000
  C   C14       1.0  0.01001  0.37041  0.25504  1.0000
  C   C15       1.0  0.00986  0.33739  0.25299  1.0000
  H   H1        1.0  0.01634  0.32650  0.19481  1.0000
  H   H2        1.0  0.01583  0.38249  0.19810  1.0000
  H   H3        1.0  0.43977  0.39807  0.33018  1.0000
  H   H4        1.0  0.12269  0.01667  0.20075  1.0000
  H   H5        1.0  0.17868  0.01758  0.19711  1.0000
  H   H6        1.0  0.06525  0.10761  0.34802  1.0000
  H   H7        1.0  0.39677  0.06636  0.34278  1.0000
  H   H8        1.0  0.43893  0.10856  0.34306  1.0000
  H   H9        1.0  0.49920  0.12395  0.20140  1.0000
  H   H10       1.0  0.49970  0.17986  0.20105  1.0000
  H   H11       1.0  0.38126  0.49998  0.20049  1.0000
  H   H12       1.0  0.32533  0.50031  0.20077  1.0000
  C   C16       1.0  0.00153  0.28598  0.32878  1.0000
  C   C17       1.0  0.00294  0.21967  0.34096  1.0000
  N   N1        1.0  0.99069  0.23510  0.26905  1.0000
  C   C18       1.0  0.98946  0.26674  0.25905  1.0000
  C   C19       1.0  0.47544  0.27697  0.18738  1.0000
  N   N2        1.0  0.96313  0.28586  0.12380  1.0000
  C   C20       1.0  0.21937  0.00212  0.32993  1.0000
  C   C21       1.0  0.28570  0.00336  0.34123  1.0000
  N   N3        1.0  0.27014  0.99134  0.26924  1.0000
  C   C22       1.0  0.23847  0.99018  0.25969  1.0000
  C   C23       1.0  0.22808  0.47644  0.18776  1.0000
  N   N4        1.0  0.21904  0.96439  0.12397  1.0000
  C   C24       1.0  0.44428  0.42158  0.33397  1.0000
  C   C25       1.0  0.42137  0.44449  0.33556  1.0000
  N   N5        1.0  0.46731  0.46743  0.34074  1.0000
  C   C26       1.0  0.47360  0.43623  0.33764  1.0000
  C   C27       1.0  0.50301  0.42030  0.33707  1.0000
  N   N6        1.0  0.03880  0.46664  0.33856  1.0000
  C   C28       1.0  0.06995  0.47276  0.33790  1.0000
  C   C29       1.0  0.08483  0.44356  0.33595  1.0000
  C   C30       1.0  0.06195  0.42065  0.33666  1.0000
  C   C31       1.0  0.08508  0.50250  0.33873  1.0000
  C   C32       1.0  0.06912  0.03187  0.34057  1.0000
  N   N7        1.0  0.03790  0.03812  0.33959  1.0000
  C   C33       1.0  0.03157  0.06931  0.34223  1.0000
  C   C34       1.0  0.06084  0.08406  0.34514  1.0000
  C   C35       1.0  0.08377  0.06118  0.34468  1.0000
  N   N8        1.0  0.46641  0.03894  0.34158  1.0000
  C   C36       1.0  0.43528  0.03287  0.34206  1.0000
  C   C37       1.0  0.42020  0.50313  0.34118  1.0000
  C   C38       1.0  0.38670  0.50290  0.34151  1.0000
  C   C39       1.0  0.36994  0.00463  0.42291  1.0000
  C   C40       1.0  0.33689  0.00483  0.42316  1.0000
  C   C41       1.0  0.31938  0.50331  0.34235  1.0000
  C   C42       1.0  0.00432  0.13555  0.42364  1.0000
  C   C43       1.0  0.00458  0.16860  0.42351  1.0000
  C   C44       1.0  0.50294  0.18599  0.34251  1.0000
  C   C45       1.0  0.11864  0.50281  0.33686  1.0000
  C   C46       1.0  0.18579  0.50244  0.33148  1.0000
  C   C47       1.0  0.16932  0.49512  0.41129  1.0000
  C   C48       1.0  0.13629  0.49527  0.41406  1.0000
  C   C49       1.0  0.50273  0.38675  0.33475  1.0000
  C   C50       1.0  0.49539  0.36920  0.41231  1.0000
  C   C51       1.0  0.49500  0.33617  0.40978  1.0000
  C   C52       1.0  0.50185  0.31957  0.32983  1.0000
  H   H13       1.0  0.48914  0.32431  0.46704  1.0000
  H   H14       1.0  0.49013  0.38039  0.47114  1.0000
  H   H15       1.0  0.39782  0.44006  0.33331  1.0000
  H   H16       1.0  0.48323  0.48332  0.34457  1.0000
  H   H17       1.0  0.02201  0.02221  0.33557  1.0000
  H   H18       1.0  0.06636  0.39708  0.33595  1.0000
  H   H19       1.0  0.10840  0.43920  0.33465  1.0000
  H   H20       1.0  0.12517  0.48957  0.47267  1.0000
  H   H21       1.0  0.18127  0.48901  0.46818  1.0000
  H   H22       1.0  0.10730  0.06569  0.34730  1.0000
  H   H23       1.0  0.00539  0.12385  0.48350  1.0000
  H   H24       1.0  0.00528  0.17972  0.48413  1.0000
  H   H25       1.0  0.32586  0.00543  0.48392  1.0000
  H   H26       1.0  0.38170  0.00570  0.48266  1.0000
  N   N9        1.0  0.01369  0.27067  0.40101  1.0000
  C   C53       1.0  0.01490  0.23900  0.41003  1.0000
  H   H27       1.0  0.02518  0.22993  0.46607  1.0000
  N   N10       1.0  0.23482  0.01405  0.40222  1.0000
  C   C54       1.0  0.26650  0.01518  0.41081  1.0000
  H   H28       1.0  0.27567  0.02530  0.46695  1.0000
  C   C55       1.0  0.43610  0.97375  0.33939  1.0000
  C   C56       1.0  0.03272  0.93549  0.33747  1.0000
  C   C57       1.0  0.50217  0.58519  0.34213  1.0000
  C   C58       1.0  0.47245  0.57009  0.34182  1.0000
  C   C59       1.0  0.42036  0.56205  0.34262  1.0000
  C   C60       1.0  0.44325  0.58498  0.34252  1.0000
  C   C61       1.0  0.33665  0.00127  0.26118  1.0000
  C   C62       1.0  0.36969  0.00120  0.26053  1.0000
  C   C63       1.0  0.50243  0.61869  0.34243  1.0000
  C   C64       1.0  0.50078  0.66862  0.26157  1.0000
  C   C65       1.0  0.50063  0.63559  0.26129  1.0000
  C   C66       1.0  0.13485  0.51071  0.25743  1.0000
  C   C67       1.0  0.16787  0.51079  0.25515  1.0000
  C   C68       1.0  0.01001  0.87041  0.25504  1.0000
  C   C69       1.0  0.00986  0.83738  0.25299  1.0000
  H   H29       1.0  0.01634  0.82650  0.19481  1.0000
  H   H30       1.0  0.01583  0.88249  0.19810  1.0000
  H   H31       1.0  0.43977  0.89807  0.33018  1.0000
  H   H32       1.0  0.12269  0.51667  0.20075  1.0000
  H   H33       1.0  0.17868  0.51757  0.19711  1.0000
  H   H34       1.0  0.06525  0.60761  0.34802  1.0000
  H   H35       1.0  0.39677  0.56636  0.34278  1.0000
  H   H36       1.0  0.43893  0.60857  0.34306  1.0000
  H   H37       1.0  0.49920  0.62395  0.20140  1.0000
  H   H38       1.0  0.49970  0.67986  0.20105  1.0000
  H   H39       1.0  0.38126  0.99998  0.20049  1.0000
  H   H40       1.0  0.32533  0.00031  0.20077  1.0000
  C   C70       1.0  0.00153  0.78598  0.32878  1.0000
  C   C71       1.0  0.00294  0.71967  0.34096  1.0000
  N   N11       1.0  0.99069  0.73510  0.26905  1.0000
  C   C72       1.0  0.98946  0.76674  0.25905  1.0000
  C   C73       1.0  0.47544  0.77697  0.18738  1.0000
  N   N12       1.0  0.96313  0.78586  0.12380  1.0000
  C   C74       1.0  0.21937  0.50211  0.32993  1.0000
  C   C75       1.0  0.28570  0.50336  0.34123  1.0000
  N   N13       1.0  0.27014  0.49134  0.26924  1.0000
  C   C76       1.0  0.23847  0.49018  0.25969  1.0000
  C   C77       1.0  0.22808  0.97644  0.18776  1.0000
  N   N14       1.0  0.21904  0.46438  0.12397  1.0000
  C   C78       1.0  0.44428  0.92158  0.33397  1.0000
  C   C79       1.0  0.42137  0.94448  0.33556  1.0000
  N   N15       1.0  0.46731  0.96743  0.34074  1.0000
  C   C80       1.0  0.47360  0.93623  0.33764  1.0000
  C   C81       1.0  0.50301  0.92030  0.33707  1.0000
  N   N16       1.0  0.03880  0.96664  0.33856  1.0000
  C   C82       1.0  0.06995  0.97276  0.33790  1.0000
  C   C83       1.0  0.08483  0.94356  0.33595  1.0000
  C   C84       1.0  0.06195  0.92065  0.33666  1.0000
  C   C85       1.0  0.08508  0.00250  0.33873  1.0000
  C   C86       1.0  0.06912  0.53187  0.34057  1.0000
  N   N17       1.0  0.03790  0.53812  0.33959  1.0000
  C   C87       1.0  0.03157  0.56931  0.34223  1.0000
  C   C88       1.0  0.06084  0.58406  0.34514  1.0000
  C   C89       1.0  0.08377  0.56119  0.34468  1.0000
  N   N18       1.0  0.46641  0.53894  0.34158  1.0000
  C   C90       1.0  0.43528  0.53287  0.34206  1.0000
  C   C91       1.0  0.42020  0.00313  0.34118  1.0000
  C   C92       1.0  0.38670  0.00290  0.34151  1.0000
  C   C93       1.0  0.36994  0.50463  0.42291  1.0000
  C   C94       1.0  0.33689  0.50483  0.42316  1.0000
  C   C95       1.0  0.31938  0.00331  0.34235  1.0000
  C   C96       1.0  0.00432  0.63555  0.42364  1.0000
  C   C97       1.0  0.00458  0.66860  0.42351  1.0000
  C   C98       1.0  0.50294  0.68599  0.34251  1.0000
  C   C99       1.0  0.11864  0.00281  0.33686  1.0000
  C   C100      1.0  0.18579  0.00244  0.33148  1.0000
  C   C101      1.0  0.16932  0.99512  0.41129  1.0000
  C   C102      1.0  0.13629  0.99528  0.41406  1.0000
  C   C103      1.0  0.50273  0.88675  0.33475  1.0000
  C   C104      1.0  0.49539  0.86920  0.41231  1.0000
  C   C105      1.0  0.49500  0.83617  0.40978  1.0000
  C   C106      1.0  0.50185  0.81957  0.32983  1.0000
  H   H41       1.0  0.48914  0.82431  0.46704  1.0000
  H   H42       1.0  0.49013  0.88040  0.47114  1.0000
  H   H43       1.0  0.39782  0.94006  0.33331  1.0000
  H   H44       1.0  0.48323  0.98332  0.34457  1.0000
  H   H45       1.0  0.02201  0.52221  0.33557  1.0000
  H   H46       1.0  0.06636  0.89708  0.33595  1.0000
  H   H47       1.0  0.10840  0.93920  0.33465  1.0000
  H   H48       1.0  0.12517  0.98957  0.47267  1.0000
  H   H49       1.0  0.18127  0.98901  0.46818  1.0000
  H   H50       1.0  0.10730  0.56569  0.34730  1.0000
  H   H51       1.0  0.00539  0.62385  0.48350  1.0000
  H   H52       1.0  0.00528  0.67972  0.48413  1.0000
  H   H53       1.0  0.32586  0.50543  0.48392  1.0000
  H   H54       1.0  0.38170  0.50570  0.48266  1.0000
  N   N19       1.0  0.01369  0.77067  0.40101  1.0000
  C   C107      1.0  0.01490  0.73900  0.41003  1.0000
  H   H55       1.0  0.02518  0.72993  0.46607  1.0000
  N   N20       1.0  0.23482  0.51405  0.40222  1.0000
  C   C108      1.0  0.26650  0.51518  0.41081  1.0000
  H   H56       1.0  0.27567  0.52530  0.46695  1.0000
  C   C109      1.0  0.93610  0.47375  0.33939  1.0000
  C   C110      1.0  0.53272  0.43549  0.33747  1.0000
  C   C111      1.0  0.00217  0.08519  0.34213  1.0000
  C   C112      1.0  0.97245  0.07009  0.34182  1.0000
  C   C113      1.0  0.92036  0.06206  0.34262  1.0000
  C   C114      1.0  0.94325  0.08498  0.34252  1.0000
  C   C115      1.0  0.83666  0.50127  0.26118  1.0000
  C   C116      1.0  0.86969  0.50120  0.26053  1.0000
  C   C117      1.0  0.00243  0.11868  0.34243  1.0000
  C   C118      1.0  0.00078  0.16862  0.26157  1.0000
  C   C119      1.0  0.00063  0.13559  0.26129  1.0000
  C   C120      1.0  0.63485  0.01071  0.25743  1.0000
  C   C121      1.0  0.66787  0.01079  0.25515  1.0000
  C   C122      1.0  0.51001  0.37041  0.25504  1.0000
  C   C123      1.0  0.50986  0.33739  0.25299  1.0000
  H   H57       1.0  0.51634  0.32650  0.19481  1.0000
  H   H58       1.0  0.51583  0.38249  0.19810  1.0000
  H   H59       1.0  0.93978  0.39807  0.33018  1.0000
  H   H60       1.0  0.62269  0.01667  0.20075  1.0000
  H   H61       1.0  0.67868  0.01758  0.19711  1.0000
  H   H62       1.0  0.56525  0.10761  0.34802  1.0000
  H   H63       1.0  0.89677  0.06636  0.34278  1.0000
  H   H64       1.0  0.93893  0.10856  0.34306  1.0000
  H   H65       1.0  0.99920  0.12395  0.20140  1.0000
  H   H66       1.0  0.99969  0.17986  0.20105  1.0000
  H   H67       1.0  0.88126  0.49998  0.20049  1.0000
  H   H68       1.0  0.82533  0.50031  0.20077  1.0000
  C   C124      1.0  0.50153  0.28598  0.32878  1.0000
  C   C125      1.0  0.50294  0.21967  0.34096  1.0000
  N   N21       1.0  0.49069  0.23510  0.26905  1.0000
  C   C126      1.0  0.48946  0.26674  0.25905  1.0000
  C   C127      1.0  0.97544  0.27697  0.18738  1.0000
  N   N22       1.0  0.46313  0.28586  0.12380  1.0000
  C   C128      1.0  0.71937  0.00212  0.32993  1.0000
  C   C129      1.0  0.78570  0.00336  0.34123  1.0000
  N   N23       1.0  0.77014  0.99134  0.26924  1.0000
  C   C130      1.0  0.73847  0.99018  0.25969  1.0000
  C   C131      1.0  0.72808  0.47644  0.18776  1.0000
  N   N24       1.0  0.71903  0.96439  0.12397  1.0000
  C   C132      1.0  0.94428  0.42158  0.33397  1.0000
  C   C133      1.0  0.92138  0.44449  0.33556  1.0000
  N   N25       1.0  0.96731  0.46743  0.34074  1.0000
  C   C134      1.0  0.97360  0.43623  0.33764  1.0000
  C   C135      1.0  0.00301  0.42030  0.33707  1.0000
  N   N26       1.0  0.53880  0.46664  0.33856  1.0000
  C   C136      1.0  0.56995  0.47276  0.33790  1.0000
  C   C137      1.0  0.58483  0.44356  0.33595  1.0000
  C   C138      1.0  0.56195  0.42065  0.33666  1.0000
  C   C139      1.0  0.58508  0.50250  0.33873  1.0000
  C   C140      1.0  0.56912  0.03187  0.34057  1.0000
  N   N27       1.0  0.53790  0.03812  0.33959  1.0000
  C   C141      1.0  0.53157  0.06931  0.34223  1.0000
  C   C142      1.0  0.56084  0.08406  0.34514  1.0000
  C   C143      1.0  0.58377  0.06118  0.34468  1.0000
  N   N28       1.0  0.96641  0.03894  0.34158  1.0000
  C   C144      1.0  0.93527  0.03287  0.34206  1.0000
  C   C145      1.0  0.92020  0.50313  0.34118  1.0000
  C   C146      1.0  0.88670  0.50290  0.34151  1.0000
  C   C147      1.0  0.86994  0.00463  0.42291  1.0000
  C   C148      1.0  0.83689  0.00483  0.42316  1.0000
  C   C149      1.0  0.81939  0.50331  0.34235  1.0000
  C   C150      1.0  0.50432  0.13555  0.42364  1.0000
  C   C151      1.0  0.50458  0.16860  0.42351  1.0000
  C   C152      1.0  0.00294  0.18599  0.34251  1.0000
  C   C153      1.0  0.61864  0.50281  0.33686  1.0000
  C   C154      1.0  0.68579  0.50244  0.33148  1.0000
  C   C155      1.0  0.66932  0.49512  0.41129  1.0000
  C   C156      1.0  0.63629  0.49527  0.41406  1.0000
  C   C157      1.0  0.00273  0.38675  0.33475  1.0000
  C   C158      1.0  0.99539  0.36920  0.41231  1.0000
  C   C159      1.0  0.99500  0.33617  0.40978  1.0000
  C   C160      1.0  0.00185  0.31957  0.32983  1.0000
  H   H69       1.0  0.98914  0.32431  0.46704  1.0000
  H   H70       1.0  0.99013  0.38039  0.47114  1.0000
  H   H71       1.0  0.89782  0.44006  0.33331  1.0000
  H   H72       1.0  0.98323  0.48332  0.34457  1.0000
  H   H73       1.0  0.52201  0.02221  0.33557  1.0000
  H   H74       1.0  0.56636  0.39708  0.33595  1.0000
  H   H75       1.0  0.60840  0.43920  0.33465  1.0000
  H   H76       1.0  0.62517  0.48957  0.47267  1.0000
  H   H77       1.0  0.68127  0.48901  0.46818  1.0000
  H   H78       1.0  0.60730  0.06569  0.34730  1.0000
  H   H79       1.0  0.50538  0.12385  0.48350  1.0000
  H   H80       1.0  0.50528  0.17972  0.48413  1.0000
  H   H81       1.0  0.82586  0.00543  0.48392  1.0000
  H   H82       1.0  0.88170  0.00570  0.48266  1.0000
  N   N29       1.0  0.51369  0.27067  0.40101  1.0000
  C   C161      1.0  0.51490  0.23900  0.41003  1.0000
  H   H83       1.0  0.52518  0.22993  0.46607  1.0000
  N   N30       1.0  0.73482  0.01405  0.40222  1.0000
  C   C162      1.0  0.76650  0.01518  0.41081  1.0000
  H   H84       1.0  0.77567  0.02530  0.46695  1.0000
  C   C163      1.0  0.93610  0.97375  0.33939  1.0000
  C   C164      1.0  0.53272  0.93549  0.33747  1.0000
  C   C165      1.0  0.00217  0.58519  0.34213  1.0000
  C   C166      1.0  0.97245  0.57009  0.34182  1.0000
  C   C167      1.0  0.92036  0.56205  0.34262  1.0000
  C   C168      1.0  0.94325  0.58498  0.34252  1.0000
  C   C169      1.0  0.83666  0.00127  0.26118  1.0000
  C   C170      1.0  0.86969  0.00120  0.26053  1.0000
  C   C171      1.0  0.00243  0.61869  0.34243  1.0000
  C   C172      1.0  0.00078  0.66862  0.26157  1.0000
  C   C173      1.0  0.00063  0.63559  0.26129  1.0000
  C   C174      1.0  0.63485  0.51071  0.25743  1.0000
  C   C175      1.0  0.66787  0.51079  0.25515  1.0000
  C   C176      1.0  0.51001  0.87041  0.25504  1.0000
  C   C177      1.0  0.50986  0.83738  0.25299  1.0000
  H   H85       1.0  0.51634  0.82650  0.19481  1.0000
  H   H86       1.0  0.51583  0.88249  0.19810  1.0000
  H   H87       1.0  0.93978  0.89807  0.33018  1.0000
  H   H88       1.0  0.62269  0.51667  0.20075  1.0000
  H   H89       1.0  0.67868  0.51757  0.19711  1.0000
  H   H90       1.0  0.56525  0.60761  0.34802  1.0000
  H   H91       1.0  0.89677  0.56636  0.34278  1.0000
  H   H92       1.0  0.93893  0.60857  0.34306  1.0000
  H   H93       1.0  0.99920  0.62395  0.20140  1.0000
  H   H94       1.0  0.99969  0.67986  0.20105  1.0000
  H   H95       1.0  0.88126  0.99998  0.20049  1.0000
  H   H96       1.0  0.82533  0.00031  0.20077  1.0000
  C   C178      1.0  0.50153  0.78598  0.32878  1.0000
  C   C179      1.0  0.50294  0.71967  0.34096  1.0000
  N   N31       1.0  0.49069  0.73510  0.26905  1.0000
  C   C180      1.0  0.48946  0.76674  0.25905  1.0000
  C   C181      1.0  0.97544  0.77697  0.18738  1.0000
  N   N32       1.0  0.46313  0.78586  0.12380  1.0000
  C   C182      1.0  0.71937  0.50211  0.32993  1.0000
  C   C183      1.0  0.78570  0.50336  0.34123  1.0000
  N   N33       1.0  0.77014  0.49134  0.26924  1.0000
  C   C184      1.0  0.73847  0.49018  0.25969  1.0000
  C   C185      1.0  0.72808  0.97644  0.18776  1.0000
  N   N34       1.0  0.71903  0.46438  0.12397  1.0000
  C   C186      1.0  0.94428  0.92158  0.33397  1.0000
  C   C187      1.0  0.92138  0.94448  0.33556  1.0000
  N   N35       1.0  0.96731  0.96743  0.34074  1.0000
  C   C188      1.0  0.97360  0.93623  0.33764  1.0000
  C   C189      1.0  0.00301  0.92030  0.33707  1.0000
  N   N36       1.0  0.53880  0.96664  0.33856  1.0000
  C   C190      1.0  0.56995  0.97276  0.33790  1.0000
  C   C191      1.0  0.58483  0.94356  0.33595  1.0000
  C   C192      1.0  0.56195  0.92065  0.33666  1.0000
  C   C193      1.0  0.58508  0.00250  0.33873  1.0000
  C   C194      1.0  0.56912  0.53187  0.34057  1.0000
  N   N37       1.0  0.53790  0.53812  0.33959  1.0000
  C   C195      1.0  0.53157  0.56931  0.34223  1.0000
  C   C196      1.0  0.56084  0.58406  0.34514  1.0000
  C   C197      1.0  0.58377  0.56119  0.34468  1.0000
  N   N38       1.0  0.96641  0.53894  0.34158  1.0000
  C   C198      1.0  0.93527  0.53287  0.34206  1.0000
  C   C199      1.0  0.92020  0.00313  0.34118  1.0000
  C   C200      1.0  0.88670  0.00290  0.34151  1.0000
  C   C201      1.0  0.86994  0.50463  0.42291  1.0000
  C   C202      1.0  0.83689  0.50483  0.42316  1.0000
  C   C203      1.0  0.81939  0.00331  0.34235  1.0000
  C   C204      1.0  0.50432  0.63555  0.42364  1.0000
  C   C205      1.0  0.50458  0.66860  0.42351  1.0000
  C   C206      1.0  0.00294  0.68599  0.34251  1.0000
  C   C207      1.0  0.61864  0.00281  0.33686  1.0000
  C   C208      1.0  0.68579  0.00244  0.33148  1.0000
  C   C209      1.0  0.66932  0.99512  0.41129  1.0000
  C   C210      1.0  0.63629  0.99528  0.41406  1.0000
  C   C211      1.0  0.00273  0.88675  0.33475  1.0000
  C   C212      1.0  0.99539  0.86920  0.41231  1.0000
  C   C213      1.0  0.99500  0.83617  0.40978  1.0000
  C   C214      1.0  0.00185  0.81957  0.32983  1.0000
  H   H97       1.0  0.98914  0.82431  0.46704  1.0000
  H   H98       1.0  0.99013  0.88040  0.47114  1.0000
  H   H99       1.0  0.89782  0.94006  0.33331  1.0000
  H   H100      1.0  0.98323  0.98332  0.34457  1.0000
  H   H101      1.0  0.52201  0.52221  0.33557  1.0000
  H   H102      1.0  0.56636  0.89708  0.33595  1.0000
  H   H103      1.0  0.60840  0.93920  0.33465  1.0000
  H   H104      1.0  0.62517  0.98957  0.47267  1.0000
  H   H105      1.0  0.68127  0.98901  0.46818  1.0000
  H   H106      1.0  0.60730  0.56569  0.34730  1.0000
  H   H107      1.0  0.50538  0.62385  0.48350  1.0000
  H   H108      1.0  0.50528  0.67972  0.48413  1.0000
  H   H109      1.0  0.82586  0.50543  0.48392  1.0000
  H   H110      1.0  0.88170  0.50570  0.48266  1.0000
  N   N39       1.0  0.51369  0.77067  0.40101  1.0000
  C   C215      1.0  0.51490  0.73900  0.41003  1.0000
  H   H111      1.0  0.52518  0.72993  0.46607  1.0000
  N   N40       1.0  0.73482  0.51405  0.40222  1.0000
  C   C216      1.0  0.76650  0.51518  0.41081  1.0000
  H   H112      1.0  0.77567  0.52530  0.46695  1.0000
