data_image0
_chemical_formula_structural       C6HC6H3NHC2HC6H3NHC2HC6H3NHCN2CNC2O3CN2CNC2O3C2NC2NHCH3NHC2NC2NHCH3NHC2NC2NHCH3NHC6HC6H3NHC2HC6H3NHC2HC6H3NHCN2CNC2O3CN2CNC2O3C2NC2NHCH3NHC2NC2NHCH3NHC2NC2NHCH3NHC6HC6H3NHC2HC6H3NHC2HC6H3NHCN2CNC2O3CN2CNC2O3C2NC2NHCH3NHC2NC2NHCH3NHC2NC2NHCH3NHC6HC6H3NHC2HC6H3NHC2HC6H3NHCN2CNC2O3CN2CNC2O3C2NC2NHCH3NHC2NC2NHCH3NHC2NC2NHCH3NH
_chemical_formula_sum              "C204 H120 N72 O24"
_cell_length_a       57.7152
_cell_length_b       57.7167
_cell_length_c       15.0246
_cell_angle_alpha    90
_cell_angle_beta     90
_cell_angle_gamma    120.001

_space_group_name_H-M_alt    "P 1"
_space_group_IT_number       1

loop_
  _space_group_symop_operation_xyz
  'x, y, z'

loop_
  _atom_site_type_symbol
  _atom_site_label
  _atom_site_symmetry_multiplicity
  _atom_site_fract_x
  _atom_site_fract_y
  _atom_site_fract_z
  _atom_site_occupancy
  C   C1        1.0  0.18251  0.32246  0.43547  1.0000
  C   C2        1.0  0.18547  0.38744  0.42648  1.0000
  C   C3        1.0  0.31383  0.17442  0.23253  1.0000
  C   C4        1.0  0.31495  0.11146  0.24044  1.0000
  C   C5        1.0  0.23708  0.27254  0.28282  1.0000
  C   C6        1.0  0.22147  0.28351  0.31292  1.0000
  H   H1        1.0  0.21972  0.29711  0.27389  1.0000
  C   C7        1.0  0.25408  0.24185  0.30945  1.0000
  C   C8        1.0  0.28520  0.21905  0.25796  1.0000
  C   C9        1.0  0.28432  0.23862  0.20381  1.0000
  C   C10       1.0  0.26848  0.24996  0.22797  1.0000
  C   C11       1.0  0.26679  0.26913  0.17425  1.0000
  C   C12       1.0  0.25110  0.28025  0.20128  1.0000
  H   H2        1.0  0.27699  0.27517  0.11531  1.0000
  H   H3        1.0  0.25023  0.29419  0.16150  1.0000
  H   H4        1.0  0.29512  0.24438  0.14591  1.0000
  N   N1        1.0  0.30172  0.20925  0.23655  1.0000
  H   H5        1.0  0.31958  0.22223  0.21555  1.0000
  C   C13       1.0  0.22536  0.46410  0.28233  1.0000
  C   C14       1.0  0.21439  0.43754  0.31248  1.0000
  H   H6        1.0  0.20076  0.42219  0.27354  1.0000
  C   C15       1.0  0.25611  0.01180  0.30877  1.0000
  C   C16       1.0  0.27891  0.06571  0.25720  1.0000
  C   C17       1.0  0.25931  0.04527  0.20317  1.0000
  C   C18       1.0  0.24795  0.01808  0.22737  1.0000
  C   C19       1.0  0.22873  0.99722  0.17378  1.0000
  C   C20       1.0  0.21760  0.47041  0.20088  1.0000
  H   H7        1.0  0.22266  0.00137  0.11489  1.0000
  H   H8        1.0  0.20363  0.45561  0.16118  1.0000
  H   H9        1.0  0.25350  0.05030  0.14535  1.0000
  N   N2        1.0  0.28871  0.09204  0.23581  1.0000
  H   H10       1.0  0.27572  0.09692  0.21506  1.0000
  C   C21       1.0  0.03386  0.26092  0.28225  1.0000
  C   C22       1.0  0.06042  0.27652  0.31242  1.0000
  H   H11       1.0  0.07578  0.27830  0.27339  1.0000
  C   C23       1.0  0.48615  0.24389  0.30880  1.0000
  C   C24       1.0  0.43224  0.21278  0.25717  1.0000
  C   C25       1.0  0.45270  0.21369  0.20302  1.0000
  C   C26       1.0  0.47988  0.22953  0.22725  1.0000
  C   C27       1.0  0.50075  0.23125  0.17354  1.0000
  C   C28       1.0  0.02756  0.24693  0.20065  1.0000
  H   H12       1.0  0.49661  0.22108  0.11453  1.0000
  H   H13       1.0  0.04238  0.24782  0.16086  1.0000
  H   H14       1.0  0.44768  0.20292  0.14508  1.0000
  N   N3        1.0  0.40592  0.19626  0.23575  1.0000
  H   H15       1.0  0.40104  0.17840  0.21479  1.0000
  C   C29       1.0  0.13829  0.31543  0.43530  1.0000
  N   N4        1.0  0.15557  0.30591  0.43456  1.0000
  N   N5        1.0  0.19204  0.34926  0.43456  1.0000
  C   C30       1.0  0.17549  0.35966  0.43531  1.0000
  N   N6        1.0  0.14869  0.34238  0.43439  1.0000
  C   C31       1.0  0.20032  0.31248  0.42686  1.0000
  C   C32       1.0  0.11050  0.29764  0.42648  1.0000
  O   O1        1.0  0.16738  0.39581  0.41985  1.0000
  O   O2        1.0  0.10213  0.27118  0.41980  1.0000
  O   O3        1.0  0.22677  0.33057  0.42004  1.0000
  C   C33       1.0  0.35897  0.18411  0.23217  1.0000
  N   N7        1.0  0.34053  0.19218  0.23335  1.0000
  N   N8        1.0  0.30576  0.14792  0.23331  1.0000
  C   C34       1.0  0.32352  0.13898  0.23213  1.0000
  N   N9        1.0  0.35003  0.15741  0.23297  1.0000
  C   C35       1.0  0.29491  0.18302  0.24122  1.0000
  C   C36       1.0  0.38649  0.20306  0.24055  1.0000
  O   O4        1.0  0.33395  0.10469  0.25567  1.0000
  O   O5        1.0  0.39325  0.22882  0.25612  1.0000
  O   O6        1.0  0.26915  0.16402  0.25673  1.0000
  C   C37       1.0  0.20788  0.27579  0.39548  1.0000
  C   C38       1.0  0.20969  0.25603  0.44640  1.0000
  N   N10       1.0  0.22493  0.24593  0.41516  1.0000
  C   C39       1.0  0.23854  0.25319  0.33694  1.0000
  C   C40       1.0  0.27047  0.21197  0.33823  1.0000
  N   N11       1.0  0.25576  0.22341  0.36096  1.0000
  H   H16       1.0  0.27132  0.19880  0.38168  1.0000
  C   C41       1.0  0.19688  0.24598  0.53407  1.0000
  H   H17       1.0  0.18587  0.25563  0.55723  1.0000
  H   H18       1.0  0.21218  0.24961  0.58352  1.0000
  H   H19       1.0  0.18299  0.22450  0.52985  1.0000
  N   N12       1.0  0.19188  0.28588  0.42013  1.0000
  H   H20       1.0  0.17302  0.27290  0.42940  1.0000
  C   C42       1.0  0.22218  0.43168  0.39493  1.0000
  C   C43       1.0  0.24197  0.45325  0.44575  1.0000
  N   N13       1.0  0.25207  0.47859  0.41446  1.0000
  C   C44       1.0  0.24476  0.48493  0.33630  1.0000
  C   C45       1.0  0.28605  0.05807  0.33739  1.0000
  N   N14       1.0  0.27459  0.03192  0.36016  1.0000
  H   H21       1.0  0.29924  0.07208  0.38077  1.0000
  C   C46       1.0  0.25207  0.45050  0.53334  1.0000
  H   H22       1.0  0.24244  0.42986  0.55655  1.0000
  H   H23       1.0  0.24848  0.46220  0.58284  1.0000
  H   H24       1.0  0.27355  0.45809  0.52895  1.0000
  N   N15       1.0  0.21207  0.40559  0.41974  1.0000
  H   H25       1.0  0.22505  0.39971  0.42881  1.0000
  C   C47       1.0  0.06626  0.29010  0.39500  1.0000
  C   C48       1.0  0.04468  0.28824  0.44596  1.0000
  N   N16       1.0  0.01934  0.27300  0.41464  1.0000
  C   C49       1.0  0.01302  0.25942  0.33636  1.0000
  C   C50       1.0  0.43987  0.22748  0.33753  1.0000
  N   N17       1.0  0.46602  0.24218  0.36032  1.0000
  H   H26       1.0  0.42585  0.22660  0.38098  1.0000
  C   C51       1.0  0.04743  0.30103  0.53366  1.0000
  H   H27       1.0  0.06807  0.31205  0.55683  1.0000
  H   H28       1.0  0.03576  0.28571  0.58308  1.0000
  H   H29       1.0  0.03980  0.31490  0.52947  1.0000
  N   N18       1.0  0.09235  0.30608  0.41981  1.0000
  H   H30       1.0  0.09823  0.32494  0.42894  1.0000
  C   C52       1.0  0.18251  0.82246  0.43547  1.0000
  C   C53       1.0  0.18547  0.88744  0.42648  1.0000
  C   C54       1.0  0.31383  0.67443  0.23253  1.0000
  C   C55       1.0  0.31495  0.61146  0.24044  1.0000
  C   C56       1.0  0.23708  0.77255  0.28282  1.0000
  C   C57       1.0  0.22147  0.78351  0.31292  1.0000
  H   H31       1.0  0.21972  0.79710  0.27389  1.0000
  C   C58       1.0  0.25408  0.74185  0.30945  1.0000
  C   C59       1.0  0.28520  0.71905  0.25796  1.0000
  C   C60       1.0  0.28432  0.73862  0.20381  1.0000
  C   C61       1.0  0.26848  0.74996  0.22797  1.0000
  C   C62       1.0  0.26679  0.76913  0.17425  1.0000
  C   C63       1.0  0.25110  0.78025  0.20128  1.0000
  H   H32       1.0  0.27699  0.77517  0.11531  1.0000
  H   H33       1.0  0.25023  0.79419  0.16150  1.0000
  H   H34       1.0  0.29512  0.74438  0.14591  1.0000
  N   N19       1.0  0.30172  0.70925  0.23655  1.0000
  H   H35       1.0  0.31958  0.72223  0.21555  1.0000
  C   C64       1.0  0.22536  0.96410  0.28233  1.0000
  C   C65       1.0  0.21438  0.93753  0.31248  1.0000
  H   H36       1.0  0.20076  0.92219  0.27354  1.0000
  C   C66       1.0  0.25611  0.51180  0.30877  1.0000
  C   C67       1.0  0.27891  0.56572  0.25720  1.0000
  C   C68       1.0  0.25931  0.54526  0.20317  1.0000
  C   C69       1.0  0.24795  0.51808  0.22737  1.0000
  C   C70       1.0  0.22873  0.49722  0.17378  1.0000
  C   C71       1.0  0.21760  0.97041  0.20088  1.0000
  H   H37       1.0  0.22266  0.50137  0.11489  1.0000
  H   H38       1.0  0.20363  0.95561  0.16118  1.0000
  H   H39       1.0  0.25350  0.55029  0.14535  1.0000
  N   N20       1.0  0.28871  0.59204  0.23581  1.0000
  H   H40       1.0  0.27572  0.59692  0.21506  1.0000
  C   C72       1.0  0.03386  0.76092  0.28225  1.0000
  C   C73       1.0  0.06042  0.77652  0.31242  1.0000
  H   H41       1.0  0.07578  0.77830  0.27339  1.0000
  C   C74       1.0  0.48615  0.74389  0.30880  1.0000
  C   C75       1.0  0.43224  0.71278  0.25717  1.0000
  C   C76       1.0  0.45270  0.71369  0.20302  1.0000
  C   C77       1.0  0.47988  0.72953  0.22725  1.0000
  C   C78       1.0  0.50075  0.73125  0.17354  1.0000
  C   C79       1.0  0.02756  0.74693  0.20065  1.0000
  H   H42       1.0  0.49662  0.72108  0.11453  1.0000
  H   H43       1.0  0.04238  0.74783  0.16086  1.0000
  H   H44       1.0  0.44768  0.70292  0.14508  1.0000
  N   N21       1.0  0.40592  0.69626  0.23575  1.0000
  H   H45       1.0  0.40104  0.67840  0.21479  1.0000
  C   C80       1.0  0.13829  0.81543  0.43530  1.0000
  N   N22       1.0  0.15557  0.80591  0.43456  1.0000
  N   N23       1.0  0.19204  0.84926  0.43456  1.0000
  C   C81       1.0  0.17549  0.85966  0.43531  1.0000
  N   N24       1.0  0.14869  0.84238  0.43439  1.0000
  C   C82       1.0  0.20032  0.81248  0.42686  1.0000
  C   C83       1.0  0.11050  0.79764  0.42648  1.0000
  O   O7        1.0  0.16739  0.89581  0.41985  1.0000
  O   O8        1.0  0.10213  0.77118  0.41980  1.0000
  O   O9        1.0  0.22677  0.83057  0.42004  1.0000
  C   C84       1.0  0.35897  0.68411  0.23217  1.0000
  N   N25       1.0  0.34053  0.69218  0.23335  1.0000
  N   N26       1.0  0.30576  0.64792  0.23331  1.0000
  C   C85       1.0  0.32352  0.63898  0.23213  1.0000
  N   N27       1.0  0.35003  0.65741  0.23297  1.0000
  C   C86       1.0  0.29491  0.68301  0.24122  1.0000
  C   C87       1.0  0.38649  0.70306  0.24055  1.0000
  O   O10       1.0  0.33395  0.60469  0.25567  1.0000
  O   O11       1.0  0.39325  0.72881  0.25612  1.0000
  O   O12       1.0  0.26915  0.66402  0.25673  1.0000
  C   C88       1.0  0.20788  0.77578  0.39548  1.0000
  C   C89       1.0  0.20969  0.75603  0.44640  1.0000
  N   N28       1.0  0.22493  0.74592  0.41516  1.0000
  C   C90       1.0  0.23854  0.75319  0.33694  1.0000
  C   C91       1.0  0.27046  0.71197  0.33823  1.0000
  N   N29       1.0  0.25576  0.72341  0.36096  1.0000
  H   H46       1.0  0.27132  0.69880  0.38168  1.0000
  C   C92       1.0  0.19688  0.74598  0.53407  1.0000
  H   H47       1.0  0.18587  0.75563  0.55723  1.0000
  H   H48       1.0  0.21218  0.74961  0.58352  1.0000
  H   H49       1.0  0.18299  0.72450  0.52984  1.0000
  N   N30       1.0  0.19188  0.78588  0.42013  1.0000
  H   H50       1.0  0.17303  0.77290  0.42940  1.0000
  C   C93       1.0  0.22218  0.93168  0.39493  1.0000
  C   C94       1.0  0.24197  0.95325  0.44575  1.0000
  N   N31       1.0  0.25207  0.97859  0.41446  1.0000
  C   C95       1.0  0.24476  0.98493  0.33630  1.0000
  C   C96       1.0  0.28605  0.55807  0.33739  1.0000
  N   N32       1.0  0.27459  0.53192  0.36016  1.0000
  H   H51       1.0  0.29924  0.57209  0.38077  1.0000
  C   C97       1.0  0.25207  0.95050  0.53334  1.0000
  H   H52       1.0  0.24243  0.92986  0.55655  1.0000
  H   H53       1.0  0.24848  0.96220  0.58284  1.0000
  H   H54       1.0  0.27355  0.95809  0.52895  1.0000
  N   N33       1.0  0.21207  0.90559  0.41974  1.0000
  H   H55       1.0  0.22505  0.89971  0.42881  1.0000
  C   C98       1.0  0.06626  0.79010  0.39500  1.0000
  C   C99       1.0  0.04468  0.78824  0.44596  1.0000
  N   N34       1.0  0.01934  0.77300  0.41464  1.0000
  C   C100      1.0  0.01302  0.75942  0.33636  1.0000
  C   C101      1.0  0.43987  0.72748  0.33753  1.0000
  N   N35       1.0  0.46602  0.74217  0.36032  1.0000
  H   H56       1.0  0.42585  0.72660  0.38098  1.0000
  C   C102      1.0  0.04743  0.80103  0.53366  1.0000
  H   H57       1.0  0.06807  0.81205  0.55683  1.0000
  H   H58       1.0  0.03576  0.78571  0.58308  1.0000
  H   H59       1.0  0.03980  0.81490  0.52947  1.0000
  N   N36       1.0  0.09235  0.80608  0.41981  1.0000
  H   H60       1.0  0.09822  0.82494  0.42894  1.0000
  C   C103      1.0  0.68251  0.32246  0.43547  1.0000
  C   C104      1.0  0.68547  0.38744  0.42648  1.0000
  C   C105      1.0  0.81383  0.17442  0.23253  1.0000
  C   C106      1.0  0.81495  0.11146  0.24044  1.0000
  C   C107      1.0  0.73708  0.27254  0.28282  1.0000
  C   C108      1.0  0.72147  0.28351  0.31292  1.0000
  H   H61       1.0  0.71972  0.29711  0.27389  1.0000
  C   C109      1.0  0.75408  0.24185  0.30945  1.0000
  C   C110      1.0  0.78520  0.21905  0.25796  1.0000
  C   C111      1.0  0.78432  0.23862  0.20381  1.0000
  C   C112      1.0  0.76848  0.24996  0.22797  1.0000
  C   C113      1.0  0.76679  0.26913  0.17425  1.0000
  C   C114      1.0  0.75110  0.28025  0.20128  1.0000
  H   H62       1.0  0.77699  0.27517  0.11531  1.0000
  H   H63       1.0  0.75023  0.29419  0.16150  1.0000
  H   H64       1.0  0.79512  0.24438  0.14591  1.0000
  N   N37       1.0  0.80172  0.20925  0.23655  1.0000
  H   H65       1.0  0.81958  0.22223  0.21555  1.0000
  C   C115      1.0  0.72536  0.46410  0.28233  1.0000
  C   C116      1.0  0.71439  0.43754  0.31248  1.0000
  H   H66       1.0  0.70076  0.42219  0.27354  1.0000
  C   C117      1.0  0.75611  0.01180  0.30877  1.0000
  C   C118      1.0  0.77891  0.06571  0.25720  1.0000
  C   C119      1.0  0.75931  0.04527  0.20317  1.0000
  C   C120      1.0  0.74795  0.01808  0.22737  1.0000
  C   C121      1.0  0.72873  0.99722  0.17378  1.0000
  C   C122      1.0  0.71760  0.47041  0.20088  1.0000
  H   H67       1.0  0.72266  0.00137  0.11489  1.0000
  H   H68       1.0  0.70363  0.45561  0.16118  1.0000
  H   H69       1.0  0.75350  0.05030  0.14535  1.0000
  N   N38       1.0  0.78871  0.09204  0.23581  1.0000
  H   H70       1.0  0.77572  0.09692  0.21506  1.0000
  C   C123      1.0  0.53386  0.26092  0.28225  1.0000
  C   C124      1.0  0.56042  0.27652  0.31242  1.0000
  H   H71       1.0  0.57578  0.27830  0.27339  1.0000
  C   C125      1.0  0.98615  0.24389  0.30880  1.0000
  C   C126      1.0  0.93224  0.21278  0.25717  1.0000
  C   C127      1.0  0.95270  0.21369  0.20302  1.0000
  C   C128      1.0  0.97988  0.22953  0.22725  1.0000
  C   C129      1.0  0.00075  0.23125  0.17354  1.0000
  C   C130      1.0  0.52756  0.24693  0.20065  1.0000
  H   H72       1.0  0.99662  0.22108  0.11453  1.0000
  H   H73       1.0  0.54238  0.24782  0.16086  1.0000
  H   H74       1.0  0.94768  0.20292  0.14508  1.0000
  N   N39       1.0  0.90592  0.19626  0.23575  1.0000
  H   H75       1.0  0.90104  0.17840  0.21479  1.0000
  C   C131      1.0  0.63829  0.31543  0.43530  1.0000
  N   N40       1.0  0.65557  0.30591  0.43456  1.0000
  N   N41       1.0  0.69204  0.34926  0.43456  1.0000
  C   C132      1.0  0.67549  0.35966  0.43531  1.0000
  N   N42       1.0  0.64869  0.34238  0.43439  1.0000
  C   C133      1.0  0.70032  0.31248  0.42686  1.0000
  C   C134      1.0  0.61050  0.29764  0.42648  1.0000
  O   O13       1.0  0.66738  0.39581  0.41985  1.0000
  O   O14       1.0  0.60213  0.27118  0.41980  1.0000
  O   O15       1.0  0.72677  0.33057  0.42004  1.0000
  C   C135      1.0  0.85897  0.18411  0.23217  1.0000
  N   N43       1.0  0.84053  0.19218  0.23335  1.0000
  N   N44       1.0  0.80576  0.14792  0.23331  1.0000
  C   C136      1.0  0.82352  0.13898  0.23213  1.0000
  N   N45       1.0  0.85003  0.15741  0.23297  1.0000
  C   C137      1.0  0.79491  0.18302  0.24122  1.0000
  C   C138      1.0  0.88649  0.20306  0.24055  1.0000
  O   O16       1.0  0.83395  0.10469  0.25567  1.0000
  O   O17       1.0  0.89325  0.22882  0.25612  1.0000
  O   O18       1.0  0.76915  0.16402  0.25673  1.0000
  C   C139      1.0  0.70788  0.27579  0.39548  1.0000
  C   C140      1.0  0.70969  0.25603  0.44640  1.0000
  N   N46       1.0  0.72493  0.24593  0.41516  1.0000
  C   C141      1.0  0.73854  0.25319  0.33694  1.0000
  C   C142      1.0  0.77046  0.21197  0.33823  1.0000
  N   N47       1.0  0.75576  0.22341  0.36096  1.0000
  H   H76       1.0  0.77132  0.19880  0.38168  1.0000
  C   C143      1.0  0.69688  0.24598  0.53407  1.0000
  H   H77       1.0  0.68587  0.25563  0.55723  1.0000
  H   H78       1.0  0.71218  0.24961  0.58352  1.0000
  H   H79       1.0  0.68299  0.22450  0.52985  1.0000
  N   N48       1.0  0.69188  0.28588  0.42013  1.0000
  H   H80       1.0  0.67302  0.27290  0.42940  1.0000
  C   C144      1.0  0.72218  0.43168  0.39493  1.0000
  C   C145      1.0  0.74197  0.45325  0.44575  1.0000
  N   N49       1.0  0.75207  0.47859  0.41446  1.0000
  C   C146      1.0  0.74477  0.48493  0.33630  1.0000
  C   C147      1.0  0.78605  0.05807  0.33739  1.0000
  N   N50       1.0  0.77459  0.03192  0.36016  1.0000
  H   H81       1.0  0.79924  0.07208  0.38077  1.0000
  C   C148      1.0  0.75207  0.45050  0.53334  1.0000
  H   H82       1.0  0.74243  0.42986  0.55655  1.0000
  H   H83       1.0  0.74848  0.46220  0.58284  1.0000
  H   H84       1.0  0.77355  0.45809  0.52895  1.0000
  N   N51       1.0  0.71207  0.40559  0.41974  1.0000
  H   H85       1.0  0.72506  0.39971  0.42881  1.0000
  C   C149      1.0  0.56626  0.29010  0.39500  1.0000
  C   C150      1.0  0.54468  0.28824  0.44596  1.0000
  N   N52       1.0  0.51934  0.27300  0.41464  1.0000
  C   C151      1.0  0.51302  0.25942  0.33636  1.0000
  C   C152      1.0  0.93987  0.22748  0.33753  1.0000
  N   N53       1.0  0.96602  0.24218  0.36032  1.0000
  H   H86       1.0  0.92585  0.22660  0.38098  1.0000
  C   C153      1.0  0.54743  0.30103  0.53366  1.0000
  H   H87       1.0  0.56807  0.31205  0.55683  1.0000
  H   H88       1.0  0.53576  0.28571  0.58308  1.0000
  H   H89       1.0  0.53980  0.31490  0.52947  1.0000
  N   N54       1.0  0.59235  0.30608  0.41981  1.0000
  H   H90       1.0  0.59823  0.32494  0.42894  1.0000
  C   C154      1.0  0.68251  0.82246  0.43547  1.0000
  C   C155      1.0  0.68547  0.88744  0.42648  1.0000
  C   C156      1.0  0.81383  0.67443  0.23253  1.0000
  C   C157      1.0  0.81495  0.61146  0.24044  1.0000
  C   C158      1.0  0.73708  0.77255  0.28282  1.0000
  C   C159      1.0  0.72147  0.78351  0.31292  1.0000
  H   H91       1.0  0.71972  0.79710  0.27389  1.0000
  C   C160      1.0  0.75408  0.74185  0.30945  1.0000
  C   C161      1.0  0.78520  0.71905  0.25796  1.0000
  C   C162      1.0  0.78432  0.73862  0.20381  1.0000
  C   C163      1.0  0.76848  0.74996  0.22797  1.0000
  C   C164      1.0  0.76679  0.76913  0.17425  1.0000
  C   C165      1.0  0.75110  0.78025  0.20128  1.0000
  H   H92       1.0  0.77699  0.77517  0.11531  1.0000
  H   H93       1.0  0.75023  0.79419  0.16150  1.0000
  H   H94       1.0  0.79512  0.74438  0.14591  1.0000
  N   N55       1.0  0.80172  0.70925  0.23655  1.0000
  H   H95       1.0  0.81958  0.72223  0.21555  1.0000
  C   C166      1.0  0.72536  0.96410  0.28233  1.0000
  C   C167      1.0  0.71439  0.93753  0.31248  1.0000
  H   H96       1.0  0.70076  0.92219  0.27354  1.0000
  C   C168      1.0  0.75611  0.51180  0.30877  1.0000
  C   C169      1.0  0.77891  0.56572  0.25720  1.0000
  C   C170      1.0  0.75931  0.54526  0.20317  1.0000
  C   C171      1.0  0.74795  0.51808  0.22737  1.0000
  C   C172      1.0  0.72873  0.49722  0.17378  1.0000
  C   C173      1.0  0.71760  0.97041  0.20088  1.0000
  H   H97       1.0  0.72266  0.50137  0.11489  1.0000
  H   H98       1.0  0.70363  0.95561  0.16118  1.0000
  H   H99       1.0  0.75350  0.55029  0.14535  1.0000
  N   N56       1.0  0.78871  0.59204  0.23581  1.0000
  H   H100      1.0  0.77572  0.59692  0.21506  1.0000
  C   C174      1.0  0.53386  0.76092  0.28225  1.0000
  C   C175      1.0  0.56042  0.77652  0.31242  1.0000
  H   H101      1.0  0.57578  0.77830  0.27339  1.0000
  C   C176      1.0  0.98615  0.74389  0.30880  1.0000
  C   C177      1.0  0.93224  0.71278  0.25717  1.0000
  C   C178      1.0  0.95270  0.71369  0.20302  1.0000
  C   C179      1.0  0.97988  0.72953  0.22725  1.0000
  C   C180      1.0  0.00075  0.73125  0.17354  1.0000
  C   C181      1.0  0.52756  0.74693  0.20065  1.0000
  H   H102      1.0  0.99662  0.72108  0.11453  1.0000
  H   H103      1.0  0.54238  0.74783  0.16086  1.0000
  H   H104      1.0  0.94768  0.70292  0.14508  1.0000
  N   N57       1.0  0.90592  0.69626  0.23575  1.0000
  H   H105      1.0  0.90104  0.67840  0.21479  1.0000
  C   C182      1.0  0.63829  0.81543  0.43530  1.0000
  N   N58       1.0  0.65557  0.80591  0.43456  1.0000
  N   N59       1.0  0.69204  0.84926  0.43456  1.0000
  C   C183      1.0  0.67549  0.85966  0.43531  1.0000
  N   N60       1.0  0.64869  0.84238  0.43439  1.0000
  C   C184      1.0  0.70032  0.81248  0.42686  1.0000
  C   C185      1.0  0.61050  0.79764  0.42648  1.0000
  O   O19       1.0  0.66738  0.89581  0.41985  1.0000
  O   O20       1.0  0.60213  0.77118  0.41980  1.0000
  O   O21       1.0  0.72677  0.83057  0.42004  1.0000
  C   C186      1.0  0.85897  0.68411  0.23217  1.0000
  N   N61       1.0  0.84053  0.69218  0.23335  1.0000
  N   N62       1.0  0.80576  0.64792  0.23331  1.0000
  C   C187      1.0  0.82352  0.63898  0.23213  1.0000
  N   N63       1.0  0.85003  0.65741  0.23297  1.0000
  C   C188      1.0  0.79491  0.68301  0.24122  1.0000
  C   C189      1.0  0.88649  0.70306  0.24055  1.0000
  O   O22       1.0  0.83395  0.60469  0.25567  1.0000
  O   O23       1.0  0.89325  0.72881  0.25612  1.0000
  O   O24       1.0  0.76915  0.66402  0.25673  1.0000
  C   C190      1.0  0.70788  0.77578  0.39548  1.0000
  C   C191      1.0  0.70969  0.75603  0.44640  1.0000
  N   N64       1.0  0.72493  0.74592  0.41516  1.0000
  C   C192      1.0  0.73854  0.75319  0.33694  1.0000
  C   C193      1.0  0.77046  0.71197  0.33823  1.0000
  N   N65       1.0  0.75576  0.72341  0.36096  1.0000
  H   H106      1.0  0.77132  0.69880  0.38168  1.0000
  C   C194      1.0  0.69688  0.74598  0.53407  1.0000
  H   H107      1.0  0.68587  0.75563  0.55723  1.0000
  H   H108      1.0  0.71218  0.74961  0.58352  1.0000
  H   H109      1.0  0.68299  0.72450  0.52984  1.0000
  N   N66       1.0  0.69188  0.78588  0.42013  1.0000
  H   H110      1.0  0.67303  0.77290  0.42940  1.0000
  C   C195      1.0  0.72218  0.93168  0.39493  1.0000
  C   C196      1.0  0.74197  0.95325  0.44575  1.0000
  N   N67       1.0  0.75207  0.97859  0.41446  1.0000
  C   C197      1.0  0.74477  0.98493  0.33630  1.0000
  C   C198      1.0  0.78605  0.55807  0.33739  1.0000
  N   N68       1.0  0.77459  0.53192  0.36016  1.0000
  H   H111      1.0  0.79924  0.57209  0.38077  1.0000
  C   C199      1.0  0.75207  0.95050  0.53334  1.0000
  H   H112      1.0  0.74243  0.92986  0.55655  1.0000
  H   H113      1.0  0.74848  0.96220  0.58284  1.0000
  H   H114      1.0  0.77355  0.95809  0.52895  1.0000
  N   N69       1.0  0.71207  0.90559  0.41974  1.0000
  H   H115      1.0  0.72506  0.89971  0.42881  1.0000
  C   C200      1.0  0.56626  0.79010  0.39500  1.0000
  C   C201      1.0  0.54468  0.78824  0.44596  1.0000
  N   N70       1.0  0.51934  0.77300  0.41464  1.0000
  C   C202      1.0  0.51302  0.75942  0.33636  1.0000
  C   C203      1.0  0.93987  0.72748  0.33753  1.0000
  N   N71       1.0  0.96602  0.74217  0.36032  1.0000
  H   H116      1.0  0.92585  0.72660  0.38098  1.0000
  C   C204      1.0  0.54743  0.80103  0.53366  1.0000
  H   H117      1.0  0.56807  0.81205  0.55683  1.0000
  H   H118      1.0  0.53576  0.78571  0.58308  1.0000
  H   H119      1.0  0.53980  0.81490  0.52947  1.0000
  N   N72       1.0  0.59235  0.80608  0.41981  1.0000
  H   H120      1.0  0.59822  0.82494  0.42894  1.0000
