data_image0
_chemical_formula_structural       C13H9C13H9C13H9C13H9C2NC2NC2NC2NC2NC2N2C2N2C2N2C2NC17H12C17H12C17H12C17H12NC2N2C2N2C2NC2NC2NC2NC2NC2NC2N
_chemical_formula_sum              "C156 H84 N24"
_cell_length_a       56.9544
_cell_length_b       56.9377
_cell_length_c       14.9814
_cell_angle_alpha    90
_cell_angle_beta     90
_cell_angle_gamma    120.005

_space_group_name_H-M_alt    "P 1"
_space_group_IT_number       1

loop_
  _space_group_symop_operation_xyz
  'x, y, z'

loop_
  _atom_site_type_symbol
  _atom_site_label
  _atom_site_symmetry_multiplicity
  _atom_site_fract_x
  _atom_site_fract_y
  _atom_site_fract_z
  _atom_site_occupancy
  C   C1        1.0  0.91114  0.83626  0.33713  1.0000
  C   C2        1.0  0.93741  0.89413  0.32934  1.0000
  C   C3        1.0  0.90941  0.87795  0.31072  1.0000
  C   C4        1.0  0.89651  0.84946  0.31427  1.0000
  C   C5        1.0  0.94980  0.92224  0.32402  1.0000
  C   C6        1.0  0.06566  0.02770  0.32988  1.0000
  C   C7        1.0  0.10993  0.03161  0.31670  1.0000
  C   C8        1.0  0.15162  0.07505  0.34247  1.0000
  C   C9        1.0  0.13841  0.04722  0.31973  1.0000
  C   C10       1.0  0.96391  0.04205  0.32931  1.0000
  C   C11       1.0  0.92014  0.03962  0.31163  1.0000
  C   C12       1.0  0.91607  0.07991  0.34048  1.0000
  C   C13       1.0  0.90447  0.05243  0.31440  1.0000
  H   H1        1.0  0.87617  0.83842  0.30120  1.0000
  H   H2        1.0  0.89809  0.88676  0.29482  1.0000
  H   H3        1.0  0.91111  0.01971  0.29258  1.0000
  H   H4        1.0  0.10112  0.01147  0.30063  1.0000
  H   H5        1.0  0.14944  0.03793  0.30625  1.0000
  H   H6        1.0  0.88434  0.04136  0.29818  1.0000
  H   H7        1.0  0.05804  0.01512  0.27810  1.0000
  H   H8        1.0  0.94500  0.92997  0.27220  1.0000
  H   H9        1.0  0.97972  0.05032  0.28808  1.0000
  C   C14       1.0  0.52517  0.36485  0.31101  1.0000
  C   C15       1.0  0.48330  0.30929  0.31687  1.0000
  C   C16       1.0  0.50783  0.31721  0.27093  1.0000
  C   C17       1.0  0.52847  0.34453  0.26840  1.0000
  C   C18       1.0  0.46379  0.28192  0.31937  1.0000
  C   C19       1.0  0.35189  0.18466  0.33717  1.0000
  C   C20       1.0  0.30757  0.18037  0.35366  1.0000
  C   C21       1.0  0.26619  0.13635  0.33201  1.0000
  C   C22       1.0  0.27911  0.16435  0.35244  1.0000
  C   C23       1.0  0.45624  0.17012  0.34046  1.0000
  C   C24       1.0  0.49863  0.17906  0.27631  1.0000
  C   C25       1.0  0.52177  0.15497  0.32878  1.0000
  C   C26       1.0  0.52080  0.17467  0.27359  1.0000
  H   H10       1.0  0.54628  0.34929  0.23705  1.0000
  H   H11       1.0  0.51120  0.30306  0.24040  1.0000
  H   H12       1.0  0.49909  0.19408  0.23740  1.0000
  H   H13       1.0  0.31625  0.20062  0.36780  1.0000
  H   H14       1.0  0.26787  0.17348  0.36498  1.0000
  H   H15       1.0  0.53674  0.18684  0.23287  1.0000
  H   H16       1.0  0.36021  0.19975  0.29320  1.0000
  H   H17       1.0  0.46062  0.27138  0.26313  1.0000
  H   H18       1.0  0.44454  0.16660  0.28703  1.0000
  C   C27       1.0  0.62330  0.16095  0.30882  1.0000
  C   C28       1.0  0.67891  0.17487  0.31492  1.0000
  C   C29       1.0  0.67091  0.19144  0.26907  1.0000
  C   C30       1.0  0.64357  0.18465  0.26644  1.0000
  C   C31       1.0  0.70632  0.18293  0.31795  1.0000
  C   C32       1.0  0.80651  0.17085  0.33393  1.0000
  C   C33       1.0  0.80951  0.13035  0.30831  1.0000
  C   C34       1.0  0.85246  0.13070  0.32901  1.0000
  C   C35       1.0  0.82462  0.11694  0.30627  1.0000
  C   C36       1.0  0.81854  0.28628  0.34415  1.0000
  C   C37       1.0  0.80957  0.31972  0.27975  1.0000
  C   C38       1.0  0.83357  0.36696  0.33221  1.0000
  C   C39       1.0  0.81392  0.34626  0.27696  1.0000
  H   H19       1.0  0.63875  0.19769  0.23531  1.0000
  H   H20       1.0  0.68502  0.20904  0.23889  1.0000
  H   H21       1.0  0.79457  0.30514  0.24086  1.0000
  H   H22       1.0  0.78938  0.11970  0.29167  1.0000
  H   H23       1.0  0.81490  0.09683  0.28956  1.0000
  H   H24       1.0  0.80176  0.35002  0.23613  1.0000
  H   H25       1.0  0.79464  0.16783  0.28130  1.0000
  H   H26       1.0  0.71706  0.19080  0.26234  1.0000
  H   H27       1.0  0.82205  0.27812  0.29068  1.0000
  C   C40       1.0  0.82760  0.46256  0.31146  1.0000
  C   C41       1.0  0.81369  0.50429  0.31691  1.0000
  C   C42       1.0  0.79723  0.47975  0.27070  1.0000
  C   C43       1.0  0.80401  0.45919  0.26839  1.0000
  C   C44       1.0  0.80563  0.52366  0.31941  1.0000
  C   C45       1.0  0.82067  0.63594  0.33688  1.0000
  C   C46       1.0  0.86063  0.68036  0.35274  1.0000
  C   C47       1.0  0.85787  0.72164  0.33006  1.0000
  C   C48       1.0  0.87301  0.70882  0.35094  1.0000
  C   C49       1.0  0.70169  0.53174  0.34060  1.0000
  C   C50       1.0  0.66808  0.48938  0.27658  1.0000
  C   C51       1.0  0.62093  0.46629  0.32979  1.0000
  C   C52       1.0  0.64152  0.46723  0.27422  1.0000
  H   H28       1.0  0.79104  0.44136  0.23699  1.0000
  H   H29       1.0  0.77972  0.47631  0.23996  1.0000
  H   H30       1.0  0.68258  0.48887  0.23749  1.0000
  H   H31       1.0  0.87225  0.67175  0.36713  1.0000
  H   H32       1.0  0.89338  0.72013  0.36326  1.0000
  H   H33       1.0  0.63765  0.45125  0.23352  1.0000
  H   H34       1.0  0.82740  0.62759  0.29290  1.0000
  H   H35       1.0  0.79805  0.52662  0.26330  1.0000
  H   H36       1.0  0.70984  0.54346  0.28720  1.0000
  C   C53       1.0  0.23737  0.12039  0.33150  1.0000
  C   C54       1.0  0.18046  0.09075  0.34354  1.0000
  N   N1        1.0  0.19407  0.08816  0.27305  1.0000
  C   C55       1.0  0.22144  0.10179  0.26378  1.0000
  C   C56       1.0  0.23103  0.09791  0.18996  1.0000
  N   N2        1.0  0.23946  0.09451  0.12463  1.0000
  C   C57       1.0  0.86791  0.11729  0.32867  1.0000
  C   C58       1.0  0.90014  0.09279  0.34146  1.0000
  N   N3        1.0  0.88450  0.08954  0.26867  1.0000
  C   C59       1.0  0.86846  0.10071  0.25893  1.0000
  C   C60       1.0  0.85597  0.09671  0.18297  1.0000
  N   N4        1.0  0.84503  0.09322  0.11572  1.0000
  C   C61       1.0  0.87068  0.75046  0.32879  1.0000
  C   C62       1.0  0.89795  0.80741  0.33914  1.0000
  N   N5        1.0  0.88167  0.79361  0.26902  1.0000
  C   C63       1.0  0.86791  0.76621  0.26060  1.0000
  C   C64       1.0  0.85439  0.75641  0.18698  1.0000
  N   N6        1.0  0.84251  0.74781  0.12183  1.0000
  N   N7        1.0  0.55721  0.15430  0.24674  1.0000
  C   C65       1.0  0.58130  0.15544  0.23395  1.0000
  C   C66       1.0  0.58946  0.15707  0.15189  1.0000
  N   N8        1.0  0.59664  0.15853  0.07944  1.0000
  N   N9        1.0  0.83428  0.40307  0.24994  1.0000
  C   C67       1.0  0.83314  0.42602  0.23697  1.0000
  C   C68       1.0  0.83161  0.43255  0.15482  1.0000
  N   N10       1.0  0.83022  0.43826  0.08229  1.0000
  N   N11       1.0  0.58467  0.43084  0.24825  1.0000
  C   C69       1.0  0.56165  0.40678  0.23574  1.0000
  C   C70       1.0  0.55498  0.39862  0.15375  1.0000
  N   N12       1.0  0.54913  0.39143  0.08135  1.0000
  C   C71       1.0  0.93927  0.85247  0.35370  1.0000
  C   C72       1.0  0.95223  0.88094  0.34967  1.0000
  C   C73       1.0  0.96695  0.93927  0.38602  1.0000
  C   C74       1.0  0.97907  0.96728  0.38082  1.0000
  C   C75       1.0  0.96336  0.98019  0.37847  1.0000
  C   C76       1.0  0.97572  0.00879  0.37841  1.0000
  C   C77       1.0  0.00435  0.02446  0.38259  1.0000
  C   C78       1.0  0.02049  0.01203  0.38430  1.0000
  C   C79       1.0  0.00762  0.98341  0.38434  1.0000
  C   C80       1.0  0.04845  0.02790  0.39100  1.0000
  C   C81       1.0  0.09375  0.04340  0.33568  1.0000
  C   C82       1.0  0.10695  0.07141  0.35603  1.0000
  C   C83       1.0  0.13542  0.08695  0.35964  1.0000
  C   C84       1.0  0.95960  0.02079  0.38024  1.0000
  C   C85       1.0  0.94799  0.05411  0.33381  1.0000
  C   C86       1.0  0.95984  0.08173  0.35768  1.0000
  C   C87       1.0  0.94406  0.09440  0.36127  1.0000
  H   H37       1.0  0.95077  0.84368  0.36679  1.0000
  H   H38       1.0  0.97268  0.89195  0.36077  1.0000
  H   H39       1.0  0.01916  0.97424  0.38808  1.0000
  H   H40       1.0  0.94261  0.96857  0.37805  1.0000
  H   H41       1.0  0.01359  0.04519  0.38536  1.0000
  H   H42       1.0  0.14421  0.10726  0.37249  1.0000
  H   H43       1.0  0.09595  0.08087  0.36722  1.0000
  H   H44       1.0  0.95341  0.11456  0.37715  1.0000
  H   H45       1.0  0.98006  0.09287  0.37269  1.0000
  H   H46       1.0  0.05578  0.04028  0.44326  1.0000
  H   H47       1.0  0.97174  0.93172  0.43834  1.0000
  H   H48       1.0  0.94374  0.01279  0.42141  1.0000
  C   C88       1.0  0.50078  0.35695  0.35783  1.0000
  C   C89       1.0  0.47996  0.32958  0.35985  1.0000
  C   C90       1.0  0.45236  0.26829  0.39515  1.0000
  C   C91       1.0  0.43841  0.24023  0.39752  1.0000
  C   C92       1.0  0.45324  0.22648  0.40293  1.0000
  C   C93       1.0  0.43993  0.19788  0.40405  1.0000
  C   C94       1.0  0.41131  0.18298  0.40078  1.0000
  C   C95       1.0  0.39597  0.19630  0.39568  1.0000
  C   C96       1.0  0.40982  0.22504  0.39482  1.0000
  C   C97       1.0  0.36782  0.18088  0.39480  1.0000
  C   C98       1.0  0.32388  0.16865  0.33662  1.0000
  C   C99       1.0  0.31111  0.14064  0.31703  1.0000
  C   C100      1.0  0.28264  0.12472  0.31498  1.0000
  C   C101      1.0  0.45545  0.18536  0.40764  1.0000
  C   C102      1.0  0.47669  0.16380  0.33450  1.0000
  C   C103      1.0  0.47705  0.14361  0.38829  1.0000
  C   C104      1.0  0.49929  0.13920  0.38505  1.0000
  H   H49       1.0  0.49789  0.37114  0.39019  1.0000
  H   H50       1.0  0.46247  0.32454  0.39369  1.0000
  H   H51       1.0  0.39904  0.23502  0.39238  1.0000
  H   H52       1.0  0.47403  0.23747  0.40479  1.0000
  H   H53       1.0  0.40159  0.16220  0.40190  1.0000
  H   H54       1.0  0.27406  0.10441  0.30249  1.0000
  H   H55       1.0  0.32241  0.13160  0.30413  1.0000
  H   H56       1.0  0.49890  0.12435  0.42447  1.0000
  H   H57       1.0  0.46138  0.13230  0.43107  1.0000
  H   H58       1.0  0.35915  0.16556  0.43798  1.0000
  H   H59       1.0  0.45699  0.27799  0.45330  1.0000
  H   H60       1.0  0.46907  0.19102  0.45656  1.0000
  C   C105      1.0  0.63125  0.14446  0.35539  1.0000
  C   C106      1.0  0.65866  0.15114  0.35752  1.0000
  C   C107      1.0  0.71974  0.18442  0.39355  1.0000
  C   C108      1.0  0.74779  0.19842  0.39701  1.0000
  C   C109      1.0  0.76167  0.22700  0.40302  1.0000
  C   C110      1.0  0.79027  0.24213  0.40654  1.0000
  C   C111      1.0  0.80502  0.22824  0.40541  1.0000
  C   C112      1.0  0.79148  0.19960  0.39975  1.0000
  C   C113      1.0  0.76280  0.18482  0.39606  1.0000
  C   C114      1.0  0.80645  0.18648  0.40118  1.0000
  C   C115      1.0  0.82171  0.15788  0.33409  1.0000
  C   C116      1.0  0.84957  0.17170  0.35665  1.0000
  C   C117      1.0  0.86461  0.15822  0.35506  1.0000
  C   C118      1.0  0.80291  0.27016  0.41055  1.0000
  C   C119      1.0  0.82479  0.31305  0.33820  1.0000
  C   C120      1.0  0.84493  0.33362  0.39204  1.0000
  C   C121      1.0  0.84931  0.36027  0.38866  1.0000
  H   H61       1.0  0.61711  0.12734  0.38762  1.0000
  H   H62       1.0  0.66373  0.13869  0.39125  1.0000
  H   H63       1.0  0.75279  0.16406  0.39295  1.0000
  H   H64       1.0  0.75080  0.23694  0.40373  1.0000
  H   H65       1.0  0.82578  0.23910  0.40859  1.0000
  H   H66       1.0  0.88474  0.16890  0.37150  1.0000
  H   H67       1.0  0.85923  0.19176  0.37404  1.0000
  H   H68       1.0  0.86413  0.37474  0.42811  1.0000
  H   H69       1.0  0.85623  0.32928  0.43492  1.0000
  H   H70       1.0  0.81820  0.18962  0.45413  1.0000
  H   H71       1.0  0.70986  0.17868  0.45129  1.0000
  H   H72       1.0  0.79719  0.27813  0.45933  1.0000
  C   C122      1.0  0.84394  0.48696  0.35850  1.0000
  C   C123      1.0  0.83727  0.50770  0.36032  1.0000
  C   C124      1.0  0.80368  0.53538  0.39485  1.0000
  C   C125      1.0  0.78962  0.54938  0.39726  1.0000
  C   C126      1.0  0.76105  0.53459  0.40264  1.0000
  C   C127      1.0  0.74580  0.54793  0.40384  1.0000
  C   C128      1.0  0.75957  0.57656  0.40064  1.0000
  C   C129      1.0  0.78822  0.59187  0.39560  1.0000
  C   C130      1.0  0.80308  0.57799  0.39469  1.0000
  C   C131      1.0  0.80100  0.62004  0.39466  1.0000
  C   C132      1.0  0.83259  0.66395  0.33593  1.0000
  C   C133      1.0  0.81730  0.67663  0.31598  1.0000
  C   C134      1.0  0.82979  0.70509  0.31329  1.0000
  C   C135      1.0  0.71777  0.53243  0.40744  1.0000
  C   C136      1.0  0.67489  0.51134  0.33486  1.0000
  C   C137      1.0  0.65443  0.51101  0.38903  1.0000
  C   C138      1.0  0.62776  0.48880  0.38608  1.0000
  H   H73       1.0  0.86097  0.48990  0.39127  1.0000
  H   H74       1.0  0.84962  0.52519  0.39440  1.0000
  H   H75       1.0  0.82384  0.58875  0.39225  1.0000
  H   H76       1.0  0.75121  0.51379  0.40445  1.0000
  H   H77       1.0  0.74854  0.58631  0.40180  1.0000
  H   H78       1.0  0.81801  0.71360  0.30051  1.0000
  H   H79       1.0  0.79696  0.66525  0.30319  1.0000
  H   H80       1.0  0.61337  0.48922  0.42578  1.0000
  H   H81       1.0  0.65888  0.52671  0.43184  1.0000
  H   H82       1.0  0.79433  0.62873  0.43773  1.0000
  H   H83       1.0  0.80919  0.53118  0.45295  1.0000
  H   H84       1.0  0.70980  0.51882  0.45642  1.0000
  N   N13       1.0  0.22377  0.12297  0.40204  1.0000
  C   C139      1.0  0.19640  0.10931  0.41135  1.0000
  C   C140      1.0  0.18682  0.11313  0.48530  1.0000
  N   N14       1.0  0.17841  0.11647  0.55077  1.0000
  N   N15       1.0  0.88355  0.12053  0.40146  1.0000
  C   C141      1.0  0.89953  0.10930  0.41130  1.0000
  C   C142      1.0  0.91215  0.11342  0.48708  1.0000
  N   N16       1.0  0.92321  0.11701  0.55412  1.0000
  N   N17       1.0  0.88693  0.76427  0.39896  1.0000
  C   C143      1.0  0.90063  0.79166  0.40748  1.0000
  C   C144      1.0  0.91414  0.80146  0.48113  1.0000
  N   N18       1.0  0.92599  0.81007  0.54633  1.0000
  C   C145      1.0  0.54541  0.15232  0.32753  1.0000
  C   C146      1.0  0.59601  0.15532  0.31008  1.0000
  N   N19       1.0  0.58422  0.15302  0.39102  1.0000
  C   C147      1.0  0.55959  0.15089  0.40345  1.0000
  C   C148      1.0  0.55239  0.15086  0.48583  1.0000
  N   N20       1.0  0.54613  0.15081  0.55872  1.0000
  C   C149      1.0  0.83619  0.39325  0.33083  1.0000
  C   C150      1.0  0.83320  0.44088  0.31298  1.0000
  N   N21       1.0  0.83543  0.43138  0.39401  1.0000
  C   C151      1.0  0.83751  0.40886  0.40663  1.0000
  C   C152      1.0  0.83761  0.40175  0.48905  1.0000
  N   N22       1.0  0.83772  0.39559  0.56198  1.0000
  C   C153      1.0  0.59464  0.44264  0.32893  1.0000
  C   C154      1.0  0.54688  0.39213  0.31203  1.0000
  N   N23       1.0  0.55652  0.40392  0.39289  1.0000
  C   C155      1.0  0.57911  0.42850  0.40504  1.0000
  C   C156      1.0  0.58636  0.43579  0.48732  1.0000
  N   N24       1.0  0.59264  0.44212  0.56013  1.0000
