data_image0
_chemical_formula_structural       SiC12H9C5NC2NH2NHNC2NH2C12H6CHCO4C3H2NHC6H2NHNHSiC12H9C5NC2NH2NHNC2NH2C12H6CHCO4C3H2NHC6H2NHNHSiC12H9C5NC2NH2NHNC2NH2C12H6CHCO4C3H2NHC6H2NHNHSiC12H9C5NC2NH2NHNC2NH2C12H6CHCO4C3H2NHC6H2NHNH
_chemical_formula_sum              "Si4 C176 H112 N32 O16"
_cell_length_a       29.4414
_cell_length_b       29.4397
_cell_length_c       15.0217
_cell_angle_alpha    90
_cell_angle_beta     90
_cell_angle_gamma    90.238

_space_group_name_H-M_alt    "P 1"
_space_group_IT_number       1

loop_
  _space_group_symop_operation_xyz
  'x, y, z'

loop_
  _atom_site_type_symbol
  _atom_site_label
  _atom_site_symmetry_multiplicity
  _atom_site_fract_x
  _atom_site_fract_y
  _atom_site_fract_z
  _atom_site_occupancy
  Si  Si1       1.0  0.48664  0.49398  0.05950  1.0000
  C   C1        1.0  0.48180  0.45612  0.14138  1.0000
  C   C2        1.0  0.99387  0.04155  0.11766  1.0000
  C   C3        1.0  0.45730  0.05846  0.16884  1.0000
  C   C4        1.0  0.46438  0.09212  0.23378  1.0000
  C   C5        1.0  0.00820  0.11023  0.25026  1.0000
  C   C6        1.0  0.04459  0.09353  0.19831  1.0000
  C   C7        1.0  0.03771  0.05967  0.13383  1.0000
  C   C8        1.0  0.01913  0.44978  0.19965  1.0000
  C   C9        1.0  0.01434  0.42561  0.27966  1.0000
  C   C10       1.0  0.47246  0.40529  0.30356  1.0000
  C   C11       1.0  0.43522  0.41136  0.24505  1.0000
  C   C12       1.0  0.43957  0.43684  0.16621  1.0000
  H   H1        1.0  0.43714  0.10157  0.27152  1.0000
  H   H2        1.0  0.42529  0.04501  0.16273  1.0000
  H   H3        1.0  0.07700  0.10531  0.20760  1.0000
  H   H4        1.0  0.06583  0.04712  0.10249  1.0000
  H   H5        1.0  0.05011  0.46433  0.18682  1.0000
  H   H6        1.0  0.04205  0.42315  0.32055  1.0000
  H   H7        1.0  0.40387  0.39850  0.26051  1.0000
  H   H8        1.0  0.41087  0.44250  0.12958  1.0000
  H   H9        1.0  0.04103  0.41418  0.02539  1.0000
  C   C13       1.0  0.01626  0.14501  0.31467  1.0000
  C   C14       1.0  0.46839  0.38045  0.38485  1.0000
  C   C15       1.0  0.49549  0.21888  0.36140  1.0000
  C   C16       1.0  0.50977  0.24952  0.29446  1.0000
  C   C17       1.0  0.01625  0.29614  0.31484  1.0000
  N   N1        1.0  0.02967  0.32410  0.24756  1.0000
  C   C18       1.0  0.03671  0.30999  0.16277  1.0000
  C   C19       1.0  0.52945  0.26400  0.14256  1.0000
  N   N2        1.0  0.51631  0.23563  0.20891  1.0000
  H   H10       1.0  0.04657  0.33257  0.11486  1.0000
  H   H11       1.0  0.53397  0.25195  0.07944  1.0000
  N   N3        1.0  0.48404  0.17550  0.33985  1.0000
  H   H12       1.0  0.45360  0.17273  0.31523  1.0000
  N   N4        1.0  0.19153  0.00234  0.27873  1.0000
  C   C20       1.0  0.20087  0.00894  0.19131  1.0000
  C   C21       1.0  0.24636  0.00799  0.16347  1.0000
  N   N5        1.0  0.27906  0.00062  0.22535  1.0000
  H   H13       1.0  0.17520  0.01466  0.14702  1.0000
  H   H14       1.0  0.25488  0.01303  0.09830  1.0000
  C   C22       1.0  0.10137  0.46731  0.53263  1.0000
  C   C23       1.0  0.08614  0.43257  0.59059  1.0000
  C   C24       1.0  0.05086  0.44047  0.65187  1.0000
  C   C25       1.0  0.02986  0.48354  0.65771  1.0000
  C   C26       1.0  0.04336  0.01731  0.59581  1.0000
  C   C27       1.0  0.07843  0.00937  0.53464  1.0000
  C   C28       1.0  0.44323  0.99664  0.65527  1.0000
  C   C29       1.0  0.43182  0.03860  0.61463  1.0000
  C   C30       1.0  0.41029  0.03986  0.53102  1.0000
  C   C31       1.0  0.39802  0.99929  0.48720  1.0000
  C   C32       1.0  0.40655  0.45753  0.52986  1.0000
  C   C33       1.0  0.42919  0.45613  0.61215  1.0000
  H   H15       1.0  0.43915  0.42494  0.63506  1.0000
  H   H16       1.0  0.39985  0.42767  0.49787  1.0000
  H   H17       1.0  0.40707  0.07044  0.49917  1.0000
  H   H18       1.0  0.44381  0.06874  0.63935  1.0000
  H   H19       1.0  0.02854  0.04872  0.59523  1.0000
  H   H20       1.0  0.10164  0.40152  0.59104  1.0000
  C   C34       1.0  0.39008  0.99933  0.39468  1.0000
  H   H21       1.0  0.08713  0.03501  0.49183  1.0000
  C   C35       1.0  0.14016  0.46094  0.47747  1.0000
  O   O1        1.0  0.42744  0.36122  0.40287  1.0000
  O   O2        1.0  0.05956  0.15243  0.34222  1.0000
  O   O3        1.0  0.42844  0.00553  0.34636  1.0000
  O   O4        1.0  0.15018  0.41834  0.44968  1.0000
  C   C36       1.0  0.00722  0.31267  0.40168  1.0000
  C   C37       1.0  0.99443  0.28117  0.46860  1.0000
  C   C38       1.0  0.48816  0.23493  0.44851  1.0000
  H   H22       1.0  0.47651  0.21334  0.49686  1.0000
  H   H23       1.0  0.98640  0.29235  0.53112  1.0000
  N   N6        1.0  0.00552  0.35873  0.41770  1.0000
  H   H24       1.0  0.01072  0.36626  0.47997  1.0000
  C   C39       1.0  0.30632  0.98699  0.37650  1.0000
  C   C40       1.0  0.27060  0.99352  0.31356  1.0000
  C   C41       1.0  0.22429  0.99449  0.34076  1.0000
  C   C42       1.0  0.21287  0.98828  0.43101  1.0000
  C   C43       1.0  0.24769  0.98057  0.49324  1.0000
  C   C44       1.0  0.29328  0.97941  0.46615  1.0000
  H   H25       1.0  0.31651  0.97317  0.51436  1.0000
  H   H26       1.0  0.24002  0.97666  0.55930  1.0000
  N   N7        1.0  0.16996  0.99544  0.46090  1.0000
  H   H27       1.0  0.16580  0.02428  0.49156  1.0000
  N   N8        1.0  0.35127  0.98945  0.34888  1.0000
  H   H28       1.0  0.35604  0.98844  0.28471  1.0000
  Si  Si2       1.0  0.48664  0.99398  0.05950  1.0000
  C   C45       1.0  0.48180  0.95612  0.14138  1.0000
  C   C46       1.0  0.99387  0.54155  0.11766  1.0000
  C   C47       1.0  0.45730  0.55846  0.16884  1.0000
  C   C48       1.0  0.46438  0.59212  0.23378  1.0000
  C   C49       1.0  0.00820  0.61023  0.25026  1.0000
  C   C50       1.0  0.04459  0.59353  0.19831  1.0000
  C   C51       1.0  0.03771  0.55967  0.13383  1.0000
  C   C52       1.0  0.01913  0.94978  0.19965  1.0000
  C   C53       1.0  0.01434  0.92561  0.27966  1.0000
  C   C54       1.0  0.47246  0.90529  0.30356  1.0000
  C   C55       1.0  0.43522  0.91136  0.24505  1.0000
  C   C56       1.0  0.43957  0.93684  0.16621  1.0000
  H   H29       1.0  0.43714  0.60157  0.27152  1.0000
  H   H30       1.0  0.42529  0.54501  0.16273  1.0000
  H   H31       1.0  0.07700  0.60531  0.20760  1.0000
  H   H32       1.0  0.06583  0.54712  0.10249  1.0000
  H   H33       1.0  0.05011  0.96433  0.18682  1.0000
  H   H34       1.0  0.04205  0.92315  0.32055  1.0000
  H   H35       1.0  0.40387  0.89850  0.26051  1.0000
  H   H36       1.0  0.41087  0.94250  0.12958  1.0000
  H   H37       1.0  0.04103  0.91418  0.02539  1.0000
  C   C57       1.0  0.01626  0.64501  0.31467  1.0000
  C   C58       1.0  0.46839  0.88045  0.38485  1.0000
  C   C59       1.0  0.49549  0.71888  0.36140  1.0000
  C   C60       1.0  0.50978  0.74953  0.29446  1.0000
  C   C61       1.0  0.01625  0.79614  0.31484  1.0000
  N   N9        1.0  0.02967  0.82410  0.24756  1.0000
  C   C62       1.0  0.03671  0.80999  0.16277  1.0000
  C   C63       1.0  0.52945  0.76400  0.14256  1.0000
  N   N10       1.0  0.51631  0.73563  0.20891  1.0000
  H   H38       1.0  0.04657  0.83257  0.11486  1.0000
  H   H39       1.0  0.53397  0.75195  0.07944  1.0000
  N   N11       1.0  0.48404  0.67550  0.33985  1.0000
  H   H40       1.0  0.45360  0.67273  0.31523  1.0000
  N   N12       1.0  0.19153  0.50234  0.27873  1.0000
  C   C64       1.0  0.20087  0.50894  0.19131  1.0000
  C   C65       1.0  0.24636  0.50799  0.16347  1.0000
  N   N13       1.0  0.27906  0.50062  0.22535  1.0000
  H   H41       1.0  0.17520  0.51466  0.14702  1.0000
  H   H42       1.0  0.25488  0.51303  0.09830  1.0000
  C   C66       1.0  0.10137  0.96730  0.53263  1.0000
  C   C67       1.0  0.08614  0.93257  0.59059  1.0000
  C   C68       1.0  0.05086  0.94047  0.65187  1.0000
  C   C69       1.0  0.02986  0.98354  0.65771  1.0000
  C   C70       1.0  0.04336  0.51731  0.59581  1.0000
  C   C71       1.0  0.07843  0.50938  0.53464  1.0000
  C   C72       1.0  0.44323  0.49664  0.65527  1.0000
  C   C73       1.0  0.43182  0.53860  0.61463  1.0000
  C   C74       1.0  0.41029  0.53986  0.53102  1.0000
  C   C75       1.0  0.39802  0.49929  0.48720  1.0000
  C   C76       1.0  0.40655  0.95753  0.52986  1.0000
  C   C77       1.0  0.42918  0.95613  0.61215  1.0000
  H   H43       1.0  0.43915  0.92494  0.63506  1.0000
  H   H44       1.0  0.39985  0.92767  0.49787  1.0000
  H   H45       1.0  0.40707  0.57045  0.49917  1.0000
  H   H46       1.0  0.44381  0.56874  0.63935  1.0000
  H   H47       1.0  0.02854  0.54872  0.59523  1.0000
  H   H48       1.0  0.10164  0.90152  0.59104  1.0000
  C   C78       1.0  0.39008  0.49933  0.39468  1.0000
  H   H49       1.0  0.08713  0.53501  0.49183  1.0000
  C   C79       1.0  0.14016  0.96094  0.47747  1.0000
  O   O5        1.0  0.42744  0.86122  0.40287  1.0000
  O   O6        1.0  0.05956  0.65243  0.34222  1.0000
  O   O7        1.0  0.42844  0.50552  0.34636  1.0000
  O   O8        1.0  0.15018  0.91833  0.44969  1.0000
  C   C80       1.0  0.00722  0.81267  0.40168  1.0000
  C   C81       1.0  0.99444  0.78117  0.46860  1.0000
  C   C82       1.0  0.48816  0.73493  0.44851  1.0000
  H   H50       1.0  0.47651  0.71334  0.49686  1.0000
  H   H51       1.0  0.98640  0.79235  0.53112  1.0000
  N   N14       1.0  0.00552  0.85873  0.41770  1.0000
  H   H52       1.0  0.01072  0.86625  0.47997  1.0000
  C   C83       1.0  0.30632  0.48699  0.37650  1.0000
  C   C84       1.0  0.27060  0.49351  0.31356  1.0000
  C   C85       1.0  0.22429  0.49449  0.34076  1.0000
  C   C86       1.0  0.21287  0.48828  0.43101  1.0000
  C   C87       1.0  0.24769  0.48057  0.49324  1.0000
  C   C88       1.0  0.29328  0.47941  0.46615  1.0000
  H   H53       1.0  0.31651  0.47317  0.51436  1.0000
  H   H54       1.0  0.24002  0.47666  0.55930  1.0000
  N   N15       1.0  0.16996  0.49544  0.46090  1.0000
  H   H55       1.0  0.16580  0.52428  0.49156  1.0000
  N   N16       1.0  0.35128  0.48945  0.34888  1.0000
  H   H56       1.0  0.35604  0.48844  0.28471  1.0000
  Si  Si3       1.0  0.98664  0.49398  0.05950  1.0000
  C   C89       1.0  0.98180  0.45612  0.14138  1.0000
  C   C90       1.0  0.49387  0.04155  0.11766  1.0000
  C   C91       1.0  0.95730  0.05846  0.16884  1.0000
  C   C92       1.0  0.96438  0.09212  0.23378  1.0000
  C   C93       1.0  0.50820  0.11023  0.25026  1.0000
  C   C94       1.0  0.54459  0.09353  0.19831  1.0000
  C   C95       1.0  0.53771  0.05967  0.13383  1.0000
  C   C96       1.0  0.51913  0.44978  0.19965  1.0000
  C   C97       1.0  0.51434  0.42561  0.27966  1.0000
  C   C98       1.0  0.97246  0.40529  0.30356  1.0000
  C   C99       1.0  0.93522  0.41136  0.24505  1.0000
  C   C100      1.0  0.93957  0.43684  0.16621  1.0000
  H   H57       1.0  0.93714  0.10157  0.27152  1.0000
  H   H58       1.0  0.92529  0.04501  0.16273  1.0000
  H   H59       1.0  0.57700  0.10531  0.20760  1.0000
  H   H60       1.0  0.56583  0.04712  0.10249  1.0000
  H   H61       1.0  0.55011  0.46433  0.18682  1.0000
  H   H62       1.0  0.54205  0.42315  0.32055  1.0000
  H   H63       1.0  0.90387  0.39850  0.26051  1.0000
  H   H64       1.0  0.91088  0.44250  0.12958  1.0000
  H   H65       1.0  0.54103  0.41418  0.02539  1.0000
  C   C101      1.0  0.51626  0.14501  0.31467  1.0000
  C   C102      1.0  0.96839  0.38045  0.38485  1.0000
  C   C103      1.0  0.99549  0.21888  0.36140  1.0000
  C   C104      1.0  0.00978  0.24952  0.29446  1.0000
  C   C105      1.0  0.51625  0.29614  0.31484  1.0000
  N   N17       1.0  0.52967  0.32410  0.24756  1.0000
  C   C106      1.0  0.53671  0.30999  0.16277  1.0000
  C   C107      1.0  0.02945  0.26400  0.14256  1.0000
  N   N18       1.0  0.01631  0.23563  0.20891  1.0000
  H   H66       1.0  0.54657  0.33257  0.11486  1.0000
  H   H67       1.0  0.03397  0.25195  0.07944  1.0000
  N   N19       1.0  0.98404  0.17550  0.33985  1.0000
  H   H68       1.0  0.95360  0.17273  0.31523  1.0000
  N   N20       1.0  0.69154  0.00234  0.27873  1.0000
  C   C108      1.0  0.70087  0.00894  0.19131  1.0000
  C   C109      1.0  0.74636  0.00799  0.16347  1.0000
  N   N21       1.0  0.77906  0.00062  0.22535  1.0000
  H   H69       1.0  0.67521  0.01466  0.14702  1.0000
  H   H70       1.0  0.75489  0.01303  0.09830  1.0000
  C   C110      1.0  0.60136  0.46731  0.53263  1.0000
  C   C111      1.0  0.58614  0.43257  0.59059  1.0000
  C   C112      1.0  0.55086  0.44047  0.65187  1.0000
  C   C113      1.0  0.52986  0.48354  0.65771  1.0000
  C   C114      1.0  0.54336  0.01731  0.59581  1.0000
  C   C115      1.0  0.57843  0.00937  0.53464  1.0000
  C   C116      1.0  0.94324  0.99664  0.65527  1.0000
  C   C117      1.0  0.93182  0.03860  0.61463  1.0000
  C   C118      1.0  0.91029  0.03986  0.53102  1.0000
  C   C119      1.0  0.89802  0.99929  0.48720  1.0000
  C   C120      1.0  0.90655  0.45753  0.52986  1.0000
  C   C121      1.0  0.92919  0.45613  0.61215  1.0000
  H   H71       1.0  0.93915  0.42494  0.63506  1.0000
  H   H72       1.0  0.89985  0.42767  0.49787  1.0000
  H   H73       1.0  0.90707  0.07044  0.49917  1.0000
  H   H74       1.0  0.94381  0.06874  0.63935  1.0000
  H   H75       1.0  0.52854  0.04872  0.59523  1.0000
  H   H76       1.0  0.60164  0.40152  0.59104  1.0000
  C   C122      1.0  0.89009  0.99933  0.39468  1.0000
  H   H77       1.0  0.58713  0.03501  0.49183  1.0000
  C   C123      1.0  0.64016  0.46094  0.47747  1.0000
  O   O9        1.0  0.92744  0.36122  0.40287  1.0000
  O   O10       1.0  0.55956  0.15243  0.34222  1.0000
  O   O11       1.0  0.92844  0.00553  0.34636  1.0000
  O   O12       1.0  0.65018  0.41834  0.44968  1.0000
  C   C124      1.0  0.50723  0.31267  0.40168  1.0000
  C   C125      1.0  0.49444  0.28117  0.46860  1.0000
  C   C126      1.0  0.98816  0.23493  0.44851  1.0000
  H   H78       1.0  0.97651  0.21334  0.49686  1.0000
  H   H79       1.0  0.48640  0.29235  0.53112  1.0000
  N   N22       1.0  0.50552  0.35873  0.41770  1.0000
  H   H80       1.0  0.51072  0.36626  0.47997  1.0000
  C   C127      1.0  0.80632  0.98699  0.37650  1.0000
  C   C128      1.0  0.77060  0.99352  0.31356  1.0000
  C   C129      1.0  0.72429  0.99449  0.34076  1.0000
  C   C130      1.0  0.71287  0.98828  0.43101  1.0000
  C   C131      1.0  0.74769  0.98057  0.49324  1.0000
  C   C132      1.0  0.79328  0.97941  0.46615  1.0000
  H   H81       1.0  0.81651  0.97317  0.51436  1.0000
  H   H82       1.0  0.74002  0.97666  0.55930  1.0000
  N   N23       1.0  0.66996  0.99544  0.46090  1.0000
  H   H83       1.0  0.66580  0.02428  0.49156  1.0000
  N   N24       1.0  0.85127  0.98945  0.34888  1.0000
  H   H84       1.0  0.85604  0.98844  0.28471  1.0000
  Si  Si4       1.0  0.98665  0.99398  0.05950  1.0000
  C   C133      1.0  0.98180  0.95612  0.14138  1.0000
  C   C134      1.0  0.49387  0.54155  0.11766  1.0000
  C   C135      1.0  0.95730  0.55846  0.16884  1.0000
  C   C136      1.0  0.96438  0.59212  0.23378  1.0000
  C   C137      1.0  0.50820  0.61023  0.25026  1.0000
  C   C138      1.0  0.54459  0.59353  0.19831  1.0000
  C   C139      1.0  0.53771  0.55967  0.13383  1.0000
  C   C140      1.0  0.51913  0.94978  0.19965  1.0000
  C   C141      1.0  0.51434  0.92561  0.27966  1.0000
  C   C142      1.0  0.97246  0.90529  0.30356  1.0000
  C   C143      1.0  0.93522  0.91136  0.24505  1.0000
  C   C144      1.0  0.93957  0.93684  0.16621  1.0000
  H   H85       1.0  0.93714  0.60157  0.27152  1.0000
  H   H86       1.0  0.92529  0.54501  0.16273  1.0000
  H   H87       1.0  0.57700  0.60531  0.20760  1.0000
  H   H88       1.0  0.56583  0.54712  0.10249  1.0000
  H   H89       1.0  0.55011  0.96433  0.18682  1.0000
  H   H90       1.0  0.54205  0.92315  0.32055  1.0000
  H   H91       1.0  0.90387  0.89850  0.26051  1.0000
  H   H92       1.0  0.91087  0.94250  0.12958  1.0000
  H   H93       1.0  0.54103  0.91418  0.02539  1.0000
  C   C145      1.0  0.51626  0.64501  0.31467  1.0000
  C   C146      1.0  0.96839  0.88045  0.38485  1.0000
  C   C147      1.0  0.99549  0.71888  0.36140  1.0000
  C   C148      1.0  0.00978  0.74953  0.29446  1.0000
  C   C149      1.0  0.51625  0.79614  0.31484  1.0000
  N   N25       1.0  0.52967  0.82410  0.24756  1.0000
  C   C150      1.0  0.53671  0.80999  0.16277  1.0000
  C   C151      1.0  0.02945  0.76400  0.14256  1.0000
  N   N26       1.0  0.01631  0.73563  0.20891  1.0000
  H   H94       1.0  0.54657  0.83257  0.11486  1.0000
  H   H95       1.0  0.03397  0.75195  0.07944  1.0000
  N   N27       1.0  0.98404  0.67550  0.33985  1.0000
  H   H96       1.0  0.95360  0.67273  0.31523  1.0000
  N   N28       1.0  0.69153  0.50234  0.27873  1.0000
  C   C152      1.0  0.70087  0.50894  0.19131  1.0000
  C   C153      1.0  0.74636  0.50799  0.16347  1.0000
  N   N29       1.0  0.77906  0.50062  0.22535  1.0000
  H   H97       1.0  0.67520  0.51466  0.14702  1.0000
  H   H98       1.0  0.75488  0.51303  0.09830  1.0000
  C   C154      1.0  0.60137  0.96730  0.53263  1.0000
  C   C155      1.0  0.58614  0.93257  0.59059  1.0000
  C   C156      1.0  0.55086  0.94047  0.65187  1.0000
  C   C157      1.0  0.52987  0.98354  0.65771  1.0000
  C   C158      1.0  0.54336  0.51731  0.59581  1.0000
  C   C159      1.0  0.57843  0.50938  0.53464  1.0000
  C   C160      1.0  0.94323  0.49664  0.65527  1.0000
  C   C161      1.0  0.93182  0.53860  0.61463  1.0000
  C   C162      1.0  0.91029  0.53986  0.53102  1.0000
  C   C163      1.0  0.89802  0.49929  0.48720  1.0000
  C   C164      1.0  0.90655  0.95753  0.52986  1.0000
  C   C165      1.0  0.92919  0.95613  0.61215  1.0000
  H   H99       1.0  0.93915  0.92494  0.63506  1.0000
  H   H100      1.0  0.89985  0.92767  0.49787  1.0000
  H   H101      1.0  0.90706  0.57045  0.49917  1.0000
  H   H102      1.0  0.94381  0.56874  0.63935  1.0000
  H   H103      1.0  0.52854  0.54872  0.59523  1.0000
  H   H104      1.0  0.60164  0.90152  0.59104  1.0000
  C   C166      1.0  0.89008  0.49933  0.39468  1.0000
  H   H105      1.0  0.58713  0.53501  0.49183  1.0000
  C   C167      1.0  0.64016  0.96094  0.47747  1.0000
  O   O13       1.0  0.92744  0.86122  0.40287  1.0000
  O   O14       1.0  0.55956  0.65243  0.34222  1.0000
  O   O15       1.0  0.92844  0.50552  0.34636  1.0000
  O   O16       1.0  0.65018  0.91833  0.44969  1.0000
  C   C168      1.0  0.50722  0.81267  0.40168  1.0000
  C   C169      1.0  0.49444  0.78117  0.46860  1.0000
  C   C170      1.0  0.98816  0.73493  0.44851  1.0000
  H   H106      1.0  0.97651  0.71334  0.49686  1.0000
  H   H107      1.0  0.48640  0.79235  0.53112  1.0000
  N   N30       1.0  0.50552  0.85873  0.41770  1.0000
  H   H108      1.0  0.51072  0.86625  0.47997  1.0000
  C   C171      1.0  0.80632  0.48699  0.37650  1.0000
  C   C172      1.0  0.77060  0.49351  0.31356  1.0000
  C   C173      1.0  0.72429  0.49449  0.34076  1.0000
  C   C174      1.0  0.71287  0.48828  0.43101  1.0000
  C   C175      1.0  0.74769  0.48057  0.49324  1.0000
  C   C176      1.0  0.79328  0.47941  0.46615  1.0000
  H   H109      1.0  0.81651  0.47317  0.51436  1.0000
  H   H110      1.0  0.74001  0.47666  0.55930  1.0000
  N   N31       1.0  0.66996  0.49544  0.46090  1.0000
  H   H111      1.0  0.66580  0.52428  0.49156  1.0000
  N   N32       1.0  0.85127  0.48945  0.34888  1.0000
  H   H112      1.0  0.85604  0.48844  0.28471  1.0000
