data_image0
_chemical_formula_structural       C15H12C2HC2HC2H4C2HC2HC2H4C2NC2NC5NC3NC17H14C8H4C8H4
_chemical_formula_sum              "C72 H46 N4"
_cell_length_a       25.8144
_cell_length_b       25.8144
_cell_length_c       15.0119
_cell_angle_alpha    90
_cell_angle_beta     90
_cell_angle_gamma    90

_space_group_name_H-M_alt    "P 1"
_space_group_IT_number       1

loop_
  _space_group_symop_operation_xyz
  'x, y, z'

loop_
  _atom_site_type_symbol
  _atom_site_label
  _atom_site_symmetry_multiplicity
  _atom_site_fract_x
  _atom_site_fract_y
  _atom_site_fract_z
  _atom_site_occupancy
  C   C1        1.0  0.88916  0.95094  0.33098  1.0000
  C   C2        1.0  0.04863  0.88765  0.33033  1.0000
  C   C3        1.0  0.99851  0.13506  0.33008  1.0000
  C   C4        1.0  0.94947  0.10992  0.33044  1.0000
  C   C5        1.0  0.86349  0.09673  0.32919  1.0000
  C   C6        1.0  0.90121  0.13441  0.33217  1.0000
  C   C7        1.0  0.72391  0.97706  0.26436  1.0000
  C   C8        1.0  0.77834  0.97869  0.26099  1.0000
  C   C9        1.0  0.99901  0.19057  0.33151  1.0000
  C   C10       1.0  0.97748  0.27403  0.26327  1.0000
  C   C11       1.0  0.97885  0.21961  0.25979  1.0000
  C   C12       1.0  0.21948  0.01728  0.25869  1.0000
  C   C13       1.0  0.27391  0.01902  0.26188  1.0000
  C   C14       1.0  0.01795  0.77824  0.25880  1.0000
  C   C15       1.0  0.01934  0.72381  0.26190  1.0000
  H   H1        1.0  0.03603  0.70521  0.20917  1.0000
  H   H2        1.0  0.03231  0.79678  0.20379  1.0000
  H   H3        1.0  0.89493  0.82598  0.33083  1.0000
  H   H4        1.0  0.20089  0.03145  0.20359  1.0000
  H   H5        1.0  0.29244  0.03574  0.20911  1.0000
  H   H6        1.0  0.10322  0.17150  0.32508  1.0000
  H   H7        1.0  0.82467  0.10433  0.32837  1.0000
  H   H8        1.0  0.89361  0.17321  0.33398  1.0000
  H   H9        1.0  0.96326  0.20118  0.20568  1.0000
  H   H10       1.0  0.95938  0.29232  0.21173  1.0000
  H   H11       1.0  0.79687  0.96338  0.20672  1.0000
  H   H12       1.0  0.70571  0.95900  0.21268  1.0000
  C   C16       1.0  0.99962  0.55473  0.26069  1.0000
  C   C17       1.0  0.99872  0.60952  0.25909  1.0000
  H   H13       1.0  0.99702  0.62738  0.19845  1.0000
  C   C18       1.0  0.99322  0.38906  0.25979  1.0000
  C   C19       1.0  0.99210  0.44384  0.26171  1.0000
  H   H14       1.0  0.98970  0.37157  0.19917  1.0000
  C   C20       1.0  0.97848  0.47256  0.17900  1.0000
  C   C21       1.0  0.00506  0.52606  0.17522  1.0000
  H   H15       1.0  0.93646  0.47788  0.17786  1.0000
  H   H16       1.0  0.98936  0.45087  0.11929  1.0000
  H   H17       1.0  0.98849  0.54778  0.11954  1.0000
  H   H18       1.0  0.04637  0.52077  0.16197  1.0000
  C   C22       1.0  0.44314  0.99978  0.26094  1.0000
  C   C23       1.0  0.38835  0.99889  0.25922  1.0000
  H   H19       1.0  0.37053  0.99728  0.19854  1.0000
  C   C24       1.0  0.60883  0.99289  0.26051  1.0000
  C   C25       1.0  0.55404  0.99199  0.26222  1.0000
  H   H20       1.0  0.62640  0.98941  0.19995  1.0000
  C   C26       1.0  0.52537  0.97867  0.17932  1.0000
  C   C27       1.0  0.47190  0.00534  0.17558  1.0000
  H   H21       1.0  0.51999  0.93667  0.17777  1.0000
  H   H22       1.0  0.54714  0.98971  0.11977  1.0000
  H   H23       1.0  0.45020  0.98892  0.11975  1.0000
  H   H24       1.0  0.47726  0.04667  0.16261  1.0000
  C   C28       1.0  0.90268  0.86477  0.33097  1.0000
  C   C29       1.0  0.86499  0.90250  0.33368  1.0000
  N   N1        1.0  0.94071  0.94054  0.32951  1.0000
  C   C30       1.0  0.95110  0.88900  0.33035  1.0000
  C   C31       1.0  0.99959  0.86257  0.33042  1.0000
  N   N2        1.0  0.05867  0.93908  0.32979  1.0000
  C   C32       1.0  0.11010  0.94908  0.33002  1.0000
  C   C33       1.0  0.13461  0.90082  0.32954  1.0000
  C   C34       1.0  0.09688  0.86313  0.33186  1.0000
  C   C35       1.0  0.13523  0.99809  0.33020  1.0000
  C   C36       1.0  0.10887  0.04660  0.32960  1.0000
  N   N3        1.0  0.05732  0.05702  0.32959  1.0000
  C   C37       1.0  0.04697  0.10858  0.32907  1.0000
  C   C38       1.0  0.09542  0.13274  0.32691  1.0000
  C   C39       1.0  0.13312  0.09502  0.32968  1.0000
  N   N4        1.0  0.93939  0.05849  0.32985  1.0000
  C   C40       1.0  0.88795  0.04845  0.33000  1.0000
  C   C41       1.0  0.86275  0.99944  0.33082  1.0000
  C   C42       1.0  0.80724  0.99905  0.33270  1.0000
  C   C43       1.0  0.77987  0.01912  0.40640  1.0000
  C   C44       1.0  0.72542  0.02045  0.40668  1.0000
  C   C45       1.0  0.69546  0.99865  0.33654  1.0000
  C   C46       1.0  0.01947  0.21780  0.40505  1.0000
  C   C47       1.0  0.02109  0.27225  0.40537  1.0000
  C   C48       1.0  0.99925  0.30235  0.33543  1.0000
  C   C49       1.0  0.19069  0.99847  0.33181  1.0000
  C   C50       1.0  0.30213  0.99931  0.33574  1.0000
  C   C51       1.0  0.27246  0.97901  0.40743  1.0000
  C   C52       1.0  0.21801  0.97990  0.40676  1.0000
  C   C53       1.0  0.99918  0.80711  0.33186  1.0000
  C   C54       1.0  0.98052  0.77989  0.40683  1.0000
  C   C55       1.0  0.97932  0.72543  0.40744  1.0000
  C   C56       1.0  0.99945  0.69568  0.33571  1.0000
  H   H25       1.0  0.96284  0.70798  0.46153  1.0000
  H   H26       1.0  0.96631  0.79960  0.46073  1.0000
  H   H27       1.0  0.82625  0.89472  0.33663  1.0000
  H   H28       1.0  0.96699  0.96682  0.32789  1.0000
  H   H29       1.0  0.03102  0.03075  0.33108  1.0000
  H   H30       1.0  0.10439  0.82430  0.33357  1.0000
  H   H31       1.0  0.17344  0.89330  0.32874  1.0000
  H   H32       1.0  0.19836  0.96553  0.46061  1.0000
  H   H33       1.0  0.28997  0.96259  0.46151  1.0000
  H   H34       1.0  0.17190  0.10278  0.33078  1.0000
  H   H35       1.0  0.03486  0.19805  0.45796  1.0000
  H   H36       1.0  0.03919  0.28927  0.45820  1.0000
  H   H37       1.0  0.70831  0.03847  0.45951  1.0000
  H   H38       1.0  0.79951  0.03465  0.45932  1.0000
  C   C57       1.0  0.99963  0.63974  0.33792  1.0000
  C   C58       1.0  0.00129  0.61202  0.41926  1.0000
  C   C59       1.0  0.00039  0.55764  0.42190  1.0000
  C   C60       1.0  0.99984  0.52736  0.34309  1.0000
  C   C61       1.0  0.99921  0.47121  0.34316  1.0000
  C   C62       1.0  0.00574  0.44087  0.42103  1.0000
  C   C63       1.0  0.00456  0.38648  0.41853  1.0000
  C   C64       1.0  0.99925  0.35853  0.33775  1.0000
  H   H39       1.0  0.01105  0.45745  0.48192  1.0000
  H   H40       1.0  0.00704  0.36780  0.47829  1.0000
  H   H41       1.0  0.00390  0.63101  0.47880  1.0000
  H   H42       1.0  0.00047  0.54103  0.48344  1.0000
  C   C65       1.0  0.35807  0.99967  0.33799  1.0000
  C   C66       1.0  0.38574  0.00131  0.41939  1.0000
  C   C67       1.0  0.44011  0.00037  0.42215  1.0000
  C   C68       1.0  0.47046  0.99984  0.34341  1.0000
  C   C69       1.0  0.52660  0.99904  0.34361  1.0000
  C   C70       1.0  0.55687  0.00525  0.42164  1.0000
  C   C71       1.0  0.61124  0.00387  0.41934  1.0000
  C   C72       1.0  0.63927  0.99865  0.33862  1.0000
  H   H43       1.0  0.54024  0.01046  0.48252  1.0000
  H   H44       1.0  0.62985  0.00612  0.47919  1.0000
  H   H45       1.0  0.36671  0.00387  0.47890  1.0000
  H   H46       1.0  0.45667  0.00038  0.48373  1.0000
