data_image0
_chemical_formula_structural       C3H2C3H2C4HCHC3H2NC2H3C7H2C3HC4HC3H2CH2N2C3H2N2C3H2CHC3H2C2H2CH2C4H3CH3CHC4H3CH3C9H4C6H3C7HC6H4NHC3H3CH
_chemical_formula_sum              "C90 H60 N6"
_cell_length_a       45.3339
_cell_length_b       45.3448
_cell_length_c       14.637
_cell_angle_alpha    90
_cell_angle_beta     90
_cell_angle_gamma    119.983

_space_group_name_H-M_alt    "P 1"
_space_group_IT_number       1

loop_
  _space_group_symop_operation_xyz
  'x, y, z'

loop_
  _atom_site_type_symbol
  _atom_site_label
  _atom_site_symmetry_multiplicity
  _atom_site_fract_x
  _atom_site_fract_y
  _atom_site_fract_z
  _atom_site_occupancy
  C   C1        1.0  0.21864  0.61403  0.35393  1.0000
  C   C2        1.0  0.16466  0.61360  0.37099  1.0000
  C   C3        1.0  0.20056  0.63150  0.36891  1.0000
  H   H1        1.0  0.21325  0.65732  0.37884  1.0000
  H   H2        1.0  0.15222  0.62688  0.38238  1.0000
  C   C4        1.0  0.33458  0.69756  0.35063  1.0000
  C   C5        1.0  0.31588  0.66156  0.35093  1.0000
  C   C6        1.0  0.33355  0.64320  0.35052  1.0000
  H   H3        1.0  0.32009  0.61704  0.35083  1.0000
  H   H4        1.0  0.32188  0.71103  0.35100  1.0000
  C   C7        1.0  0.28250  0.64536  0.35178  1.0000
  C   C8        1.0  0.25201  0.63049  0.35271  1.0000
  C   C9        1.0  0.05407  0.52321  0.35343  1.0000
  C   C10       1.0  0.03610  0.52395  0.27568  1.0000
  H   H5        1.0  0.04818  0.53247  0.21405  1.0000
  C   C11       1.0  0.08801  0.53284  0.34046  1.0000
  H   H6        1.0  0.09326  0.51595  0.31309  1.0000
  C   C12       1.0  0.20012  0.57840  0.34116  1.0000
  C   C13       1.0  0.16423  0.56064  0.34314  1.0000
  C   C14       1.0  0.14591  0.57800  0.35762  1.0000
  H   H7        1.0  0.21248  0.56495  0.33079  1.0000
  H   H8        1.0  0.15167  0.53481  0.33491  1.0000
  N   N1        1.0  0.11198  0.56283  0.36237  1.0000
  C   C15       1.0  0.03644  0.51079  0.43812  1.0000
  C   C16       1.0  0.05492  0.50934  0.52148  1.0000
  H   H9        1.0  0.08180  0.51811  0.51058  1.0000
  H   H10       1.0  0.04334  0.48316  0.54601  1.0000
  H   H11       1.0  0.05352  0.52526  0.57530  1.0000
  C   C17       1.0  0.41702  0.61070  0.35070  1.0000
  C   C18       1.0  0.42036  0.81243  0.35098  1.0000
  C   C19       1.0  0.45279  0.57376  0.35434  1.0000
  C   C20       1.0  0.41688  0.55660  0.34945  1.0000
  C   C21       1.0  0.39914  0.57476  0.34718  1.0000
  C   C22       1.0  0.45724  0.88512  0.35475  1.0000
  C   C23       1.0  0.45633  0.83050  0.34900  1.0000
  H   H12       1.0  0.40327  0.53055  0.34744  1.0000
  H   H13       1.0  0.37307  0.56140  0.34360  1.0000
  C   C24       1.0  0.37060  0.71521  0.34990  1.0000
  C   C25       1.0  0.36956  0.66050  0.34981  1.0000
  C   C26       1.0  0.38791  0.69651  0.34953  1.0000
  H   H14       1.0  0.41408  0.70920  0.34912  1.0000
  C   C27       1.0  0.40340  0.77907  0.35015  1.0000
  C   C28       1.0  0.38778  0.74859  0.34987  1.0000
  C   C29       1.0  0.40063  0.62767  0.34991  1.0000
  C   C30       1.0  0.38577  0.64332  0.34969  1.0000
  H   H15       1.0  0.44609  0.93751  0.32504  1.0000
  C   C31       1.0  0.45292  0.62806  0.35645  1.0000
  C   C32       1.0  0.40294  0.83095  0.35522  1.0000
  C   C33       1.0  0.42118  0.86682  0.35725  1.0000
  H   H16       1.0  0.37687  0.81859  0.35764  1.0000
  H   H17       1.0  0.40781  0.87941  0.36201  1.0000
  C   C34       1.0  0.47445  0.86639  0.35127  1.0000
  H   H18       1.0  0.50051  0.87883  0.35035  1.0000
  H   H19       1.0  0.46972  0.81781  0.34648  1.0000
  N   N2        1.0  0.46773  0.55478  0.35893  1.0000
  N   N3        1.0  0.47618  0.91902  0.35930  1.0000
  C   C35       1.0  0.57931  0.13947  0.35611  1.0000
  C   C36       1.0  0.56404  0.15831  0.32585  1.0000
  C   C37       1.0  0.58241  0.19420  0.32462  1.0000
  H   H20       1.0  0.53924  0.14594  0.30431  1.0000
  H   H21       1.0  0.57045  0.20696  0.30217  1.0000
  N   N4        1.0  0.57045  0.47089  0.35715  1.0000
  N   N5        1.0  0.55997  0.10556  0.35745  1.0000
  C   C38       1.0  0.50806  0.53732  0.35689  1.0000
  C   C39       1.0  0.50712  0.51858  0.27899  1.0000
  C   C40       1.0  0.51799  0.49464  0.28353  1.0000
  H   H22       1.0  0.51656  0.48133  0.22548  1.0000
  H   H23       1.0  0.49844  0.52214  0.21761  1.0000
  C   C41       1.0  0.49857  0.56176  0.34472  1.0000
  H   H24       1.0  0.51641  0.58496  0.32589  1.0000
  C   C42       1.0  0.49366  0.97679  0.35668  1.0000
  C   C43       1.0  0.51241  0.99457  0.27880  1.0000
  C   C44       1.0  0.53634  0.02938  0.28331  1.0000
  H   H25       1.0  0.54965  0.04125  0.22525  1.0000
  H   H26       1.0  0.50888  0.98233  0.21743  1.0000
  C   C45       1.0  0.46924  0.94287  0.34449  1.0000
  C   C46       1.0  0.47054  0.60979  0.35844  1.0000
  H   H27       1.0  0.49647  0.62311  0.36432  1.0000
  H   H28       1.0  0.46663  0.65411  0.35999  1.0000
  C   C47       1.0  0.56912  0.41746  0.38766  1.0000
  H   H29       1.0  0.54489  0.40592  0.41306  1.0000
  H   H30       1.0  0.57425  0.37444  0.41074  1.0000
  C   C48       1.0  0.53070  0.48906  0.36569  1.0000
  C   C49       1.0  0.53203  0.50771  0.44580  1.0000
  C   C50       1.0  0.52069  0.53215  0.44128  1.0000
  C   C51       1.0  0.54509  0.50197  0.53429  1.0000
  H   H31       1.0  0.55307  0.48301  0.53084  1.0000
  H   H32       1.0  0.52528  0.49333  0.58640  1.0000
  H   H33       1.0  0.56717  0.52567  0.55696  1.0000
  C   C52       1.0  0.52200  0.55186  0.52499  1.0000
  H   H34       1.0  0.51265  0.56954  0.51479  1.0000
  H   H35       1.0  0.54822  0.56685  0.54893  1.0000
  H   H36       1.0  0.50647  0.53438  0.57900  1.0000
  C   C53       1.0  0.53925  0.46366  0.36450  1.0000
  H   H37       1.0  0.52053  0.43965  0.36927  1.0000
  C   C54       1.0  0.54187  0.04768  0.36543  1.0000
  C   C55       1.0  0.52323  0.03036  0.44555  1.0000
  C   C56       1.0  0.49880  0.99459  0.44105  1.0000
  C   C57       1.0  0.52895  0.04916  0.53403  1.0000
  H   H38       1.0  0.54794  0.07608  0.53060  1.0000
  H   H39       1.0  0.53757  0.03798  0.58617  1.0000
  H   H40       1.0  0.50525  0.04757  0.55665  1.0000
  C   C58       1.0  0.47906  0.97621  0.52473  1.0000
  H   H41       1.0  0.46137  0.94919  0.51451  1.0000
  H   H42       1.0  0.46407  0.98745  0.54862  1.0000
  H   H43       1.0  0.49653  0.97814  0.57878  1.0000
  C   C59       1.0  0.56726  0.08162  0.36417  1.0000
  C   C60       1.0  0.81850  0.41036  0.35698  1.0000
  C   C61       1.0  0.62032  0.41411  0.35430  1.0000
  C   C62       1.0  0.61660  0.21217  0.35451  1.0000
  C   C63       1.0  0.58498  0.45150  0.35581  1.0000
  C   C64       1.0  0.61889  0.46654  0.32419  1.0000
  C   C65       1.0  0.63637  0.44811  0.32296  1.0000
  C   C66       1.0  0.87248  0.41060  0.34331  1.0000
  C   C67       1.0  0.83658  0.39288  0.34231  1.0000
  H   H44       1.0  0.63121  0.49121  0.30160  1.0000
  H   H45       1.0  0.66095  0.45990  0.29947  1.0000
  H   H46       1.0  0.82388  0.36712  0.33105  1.0000
  H   H47       1.0  0.88492  0.39726  0.33279  1.0000
  C   C68       1.0  0.66652  0.30939  0.35523  1.0000
  C   C69       1.0  0.70253  0.32702  0.35583  1.0000
  C   C70       1.0  0.72125  0.36302  0.35607  1.0000
  C   C71       1.0  0.70361  0.38140  0.35574  1.0000
  C   C72       1.0  0.66759  0.36412  0.35514  1.0000
  C   C73       1.0  0.64922  0.32811  0.35492  1.0000
  H   H48       1.0  0.71708  0.40756  0.35585  1.0000
  H   H49       1.0  0.71522  0.31354  0.35599  1.0000
  H   H50       1.0  0.62306  0.31543  0.35443  1.0000
  C   C74       1.0  0.63366  0.24553  0.35447  1.0000
  C   C75       1.0  0.64933  0.27601  0.35478  1.0000
  C   C76       1.0  0.63659  0.39701  0.35428  1.0000
  C   C77       1.0  0.65140  0.38132  0.35464  1.0000
  C   C78       1.0  0.75464  0.37919  0.35637  1.0000
  C   C79       1.0  0.78513  0.39400  0.35660  1.0000
  C   C80       1.0  0.00130  0.51314  0.28065  1.0000
  H   H51       1.0  0.98931  0.51440  0.22260  1.0000
  C   C81       1.0  0.58650  0.39896  0.38678  1.0000
  C   C82       1.0  0.83703  0.44583  0.37267  1.0000
  C   C83       1.0  0.87292  0.46342  0.37350  1.0000
  C   C84       1.0  0.89124  0.44610  0.35842  1.0000
  C   C85       1.0  0.63200  0.19356  0.38555  1.0000
  C   C86       1.0  0.61354  0.15768  0.38647  1.0000
  H   H52       1.0  0.82468  0.45923  0.38404  1.0000
  H   H53       1.0  0.88547  0.48900  0.38605  1.0000
  H   H54       1.0  0.65667  0.20584  0.40843  1.0000
  H   H55       1.0  0.62527  0.14502  0.41080  1.0000
  N   N6        1.0  0.92520  0.46087  0.35975  1.0000
  H   H56       1.0  0.59129  0.08692  0.36830  1.0000
  C   C87       1.0  0.98319  0.50074  0.36318  1.0000
  C   C88       1.0  0.00070  0.49964  0.44319  1.0000
  C   C89       1.0  0.98215  0.48708  0.53219  1.0000
  H   H57       1.0  0.95532  0.47959  0.52939  1.0000
  H   H58       1.0  0.99378  0.50702  0.58384  1.0000
  H   H59       1.0  0.98340  0.46482  0.55508  1.0000
  C   C90       1.0  0.94922  0.49217  0.36195  1.0000
  H   H60       1.0  0.94399  0.51098  0.36148  1.0000
