data_image0
_chemical_formula_structural       C2H2C2H2C2H2C2H2C2H2C2H2C24H15C24H15C8H2N2O4C8H2N2O4C8H2N2O4
_chemical_formula_sum              "C84 H48 N6 O12"
_cell_length_a       37.2484
_cell_length_b       37.2483
_cell_length_c       14.798
_cell_angle_alpha    90
_cell_angle_beta     90
_cell_angle_gamma    120

_space_group_name_H-M_alt    "P 1"
_space_group_IT_number       1

loop_
  _space_group_symop_operation_xyz
  'x, y, z'

loop_
  _atom_site_type_symbol
  _atom_site_label
  _atom_site_symmetry_multiplicity
  _atom_site_fract_x
  _atom_site_fract_y
  _atom_site_fract_z
  _atom_site_occupancy
  C   C1        1.0  0.55703  0.50802  0.29751  1.0000
  C   C2        1.0  0.57855  0.48592  0.29691  1.0000
  H   H1        1.0  0.56739  0.53359  0.25699  1.0000
  H   H2        1.0  0.60375  0.49576  0.25537  1.0000
  C   C3        1.0  0.46273  0.54630  0.27266  1.0000
  C   C4        1.0  0.48460  0.52458  0.27409  1.0000
  H   H3        1.0  0.45223  0.55034  0.21172  1.0000
  H   H4        1.0  0.48833  0.51276  0.21460  1.0000
  C   C5        1.0  0.50905  0.05242  0.29750  1.0000
  C   C6        1.0  0.53115  0.09604  0.29690  1.0000
  H   H5        1.0  0.48349  0.03721  0.25695  1.0000
  H   H6        1.0  0.52132  0.11140  0.25534  1.0000
  C   C7        1.0  0.47078  0.91984  0.27266  1.0000
  C   C8        1.0  0.49250  0.96344  0.27410  1.0000
  H   H7        1.0  0.46676  0.90532  0.21174  1.0000
  H   H8        1.0  0.50434  0.97898  0.21462  1.0000
  C   C9        1.0  0.96464  0.46000  0.29765  1.0000
  C   C10       1.0  0.92103  0.43848  0.29705  1.0000
  H   H9        1.0  0.97985  0.44961  0.25718  1.0000
  H   H10       1.0  0.90567  0.41326  0.25556  1.0000
  C   C11       1.0  0.09723  0.55429  0.27266  1.0000
  C   C12       1.0  0.05363  0.53241  0.27411  1.0000
  H   H11       1.0  0.11175  0.56474  0.21171  1.0000
  H   H12       1.0  0.03809  0.52865  0.21460  1.0000
  C   C13       1.0  0.29914  0.65099  0.34879  1.0000
  C   C14       1.0  0.32216  0.63011  0.34879  1.0000
  C   C15       1.0  0.36607  0.65155  0.34882  1.0000
  C   C16       1.0  0.38695  0.69545  0.34878  1.0000
  C   C17       1.0  0.36551  0.71793  0.34879  1.0000
  C   C18       1.0  0.32161  0.69490  0.34875  1.0000
  C   C19       1.0  0.38861  0.62954  0.34936  1.0000
  C   C20       1.0  0.37593  0.59361  0.29598  1.0000
  C   C21       1.0  0.39791  0.57193  0.29698  1.0000
  C   C22       1.0  0.43372  0.58522  0.35119  1.0000
  C   C23       1.0  0.44647  0.62125  0.40429  1.0000
  C   C24       1.0  0.42441  0.64284  0.40355  1.0000
  C   C25       1.0  0.25459  0.62845  0.34934  1.0000
  C   C26       1.0  0.23209  0.59267  0.40359  1.0000
  C   C27       1.0  0.18844  0.57061  0.40436  1.0000
  C   C28       1.0  0.16516  0.58335  0.35119  1.0000
  C   C29       1.0  0.18767  0.61912  0.29691  1.0000
  C   C30       1.0  0.23133  0.64110  0.29590  1.0000
  C   C31       1.0  0.38752  0.76247  0.34934  1.0000
  C   C32       1.0  0.37422  0.78498  0.40352  1.0000
  C   C33       1.0  0.39579  0.82863  0.40425  1.0000
  C   C34       1.0  0.43184  0.85190  0.35118  1.0000
  C   C35       1.0  0.44514  0.82939  0.29700  1.0000
  C   C36       1.0  0.42347  0.78574  0.29601  1.0000
  H   H13       1.0  0.17379  0.54460  0.44375  1.0000
  H   H14       1.0  0.24731  0.58253  0.44464  1.0000
  H   H15       1.0  0.17245  0.63007  0.25820  1.0000
  H   H16       1.0  0.24601  0.66638  0.25442  1.0000
  H   H17       1.0  0.34881  0.76976  0.44446  1.0000
  H   H18       1.0  0.38440  0.84327  0.44357  1.0000
  H   H19       1.0  0.43409  0.77106  0.25456  1.0000
  H   H20       1.0  0.47134  0.84462  0.25836  1.0000
  H   H21       1.0  0.43457  0.66822  0.44456  1.0000
  H   H22       1.0  0.47250  0.63263  0.44365  1.0000
  H   H23       1.0  0.38695  0.54574  0.25832  1.0000
  H   H24       1.0  0.35064  0.58299  0.25454  1.0000
  H   H25       1.0  0.30650  0.59840  0.34894  1.0000
  H   H26       1.0  0.30555  0.71056  0.34887  1.0000
  H   H27       1.0  0.41866  0.71151  0.34894  1.0000
  C   C37       1.0  0.72136  0.36228  0.34913  1.0000
  C   C38       1.0  0.69869  0.38353  0.34913  1.0000
  C   C39       1.0  0.65478  0.36249  0.34913  1.0000
  C   C40       1.0  0.63353  0.31857  0.34912  1.0000
  C   C41       1.0  0.65457  0.29570  0.34912  1.0000
  C   C42       1.0  0.69849  0.31837  0.34913  1.0000
  C   C43       1.0  0.63260  0.38487  0.34937  1.0000
  C   C44       1.0  0.64587  0.42085  0.40319  1.0000
  C   C45       1.0  0.62416  0.44281  0.40368  1.0000
  C   C46       1.0  0.58822  0.42929  0.35053  1.0000
  C   C47       1.0  0.57451  0.39345  0.29690  1.0000
  C   C48       1.0  0.59649  0.37178  0.29613  1.0000
  C   C49       1.0  0.76593  0.38446  0.34940  1.0000
  C   C50       1.0  0.78895  0.42059  0.29621  1.0000
  C   C51       1.0  0.83261  0.44257  0.29700  1.0000
  C   C52       1.0  0.85473  0.42884  0.35059  1.0000
  C   C53       1.0  0.83230  0.39288  0.40369  1.0000
  C   C54       1.0  0.78864  0.37118  0.40318  1.0000
  C   C55       1.0  0.63219  0.25114  0.34937  1.0000
  C   C56       1.0  0.64528  0.22811  0.29614  1.0000
  C   C57       1.0  0.62360  0.18446  0.29691  1.0000
  C   C58       1.0  0.58777  0.16234  0.35055  1.0000
  C   C59       1.0  0.57425  0.18476  0.40368  1.0000
  C   C60       1.0  0.59621  0.22842  0.40319  1.0000
  H   H28       1.0  0.84814  0.46857  0.25776  1.0000
  H   H29       1.0  0.77411  0.43107  0.25492  1.0000
  H   H30       1.0  0.84759  0.38254  0.44405  1.0000
  H   H31       1.0  0.77356  0.34585  0.44438  1.0000
  H   H32       1.0  0.67060  0.24296  0.25483  1.0000
  H   H33       1.0  0.63406  0.16892  0.25766  1.0000
  H   H34       1.0  0.58597  0.24350  0.44443  1.0000
  H   H35       1.0  0.54863  0.16947  0.44411  1.0000
  H   H36       1.0  0.58602  0.34646  0.25483  1.0000
  H   H37       1.0  0.54852  0.38299  0.25765  1.0000
  H   H38       1.0  0.63449  0.46843  0.44408  1.0000
  H   H39       1.0  0.67118  0.43109  0.44441  1.0000
  H   H40       1.0  0.71462  0.41524  0.34924  1.0000
  H   H41       1.0  0.71427  0.30244  0.34921  1.0000
  H   H42       1.0  0.60182  0.30279  0.34921  1.0000
  C   C61       1.0  0.56573  0.45079  0.35261  1.0000
  C   C62       1.0  0.53077  0.43784  0.40961  1.0000
  C   C63       1.0  0.50946  0.46047  0.40945  1.0000
  C   C64       1.0  0.52230  0.49585  0.35429  1.0000
  C   C65       1.0  0.50069  0.51854  0.35563  1.0000
  C   C66       1.0  0.49473  0.53542  0.43659  1.0000
  C   C67       1.0  0.47249  0.55713  0.43391  1.0000
  C   C68       1.0  0.45604  0.56302  0.35257  1.0000
  H   H43       1.0  0.46801  0.56842  0.49330  1.0000
  H   H44       1.0  0.48400  0.45065  0.45011  1.0000
  N   N1        1.0  0.51238  0.53176  0.51845  1.0000
  N   N2        1.0  0.51819  0.40293  0.46631  1.0000
  O   O1        1.0  0.48524  0.51302  0.57798  1.0000
  O   O2        1.0  0.48180  0.37491  0.44884  1.0000
  O   O3        1.0  0.53878  0.56666  0.54871  1.0000
  O   O4        1.0  0.52015  0.41263  0.54824  1.0000
  C   C69       1.0  0.56626  0.11835  0.35263  1.0000
  C   C70       1.0  0.57920  0.09633  0.40966  1.0000
  C   C71       1.0  0.55657  0.05239  0.40950  1.0000
  C   C72       1.0  0.52120  0.02986  0.35430  1.0000
  C   C73       1.0  0.49852  0.98556  0.35564  1.0000
  C   C74       1.0  0.48160  0.96271  0.43658  1.0000
  C   C75       1.0  0.45990  0.91877  0.43390  1.0000
  C   C76       1.0  0.45404  0.89643  0.35257  1.0000
  H   H45       1.0  0.44859  0.90299  0.49327  1.0000
  H   H46       1.0  0.56638  0.03675  0.45018  1.0000
  N   N3        1.0  0.48525  0.98402  0.51844  1.0000
  N   N4        1.0  0.61410  0.11866  0.46639  1.0000
  O   O5        1.0  0.50396  0.97562  0.57800  1.0000
  O   O6        1.0  0.64213  0.11030  0.44895  1.0000
  O   O7        1.0  0.45033  0.97551  0.54864  1.0000
  O   O8        1.0  0.60438  0.11092  0.54831  1.0000
  C   C77       1.0  0.89872  0.45132  0.35267  1.0000
  C   C78       1.0  0.92074  0.48632  0.40959  1.0000
  C   C79       1.0  0.96467  0.50763  0.40943  1.0000
  C   C80       1.0  0.98720  0.49475  0.35434  1.0000
  C   C81       1.0  0.03151  0.51637  0.35568  1.0000
  C   C82       1.0  0.05436  0.52238  0.43665  1.0000
  C   C83       1.0  0.09831  0.54462  0.43394  1.0000
  C   C84       1.0  0.12063  0.56102  0.35259  1.0000
  H   H47       1.0  0.11408  0.54914  0.49334  1.0000
  H   H48       1.0  0.98032  0.53311  0.45003  1.0000
  N   N5        1.0  0.03305  0.50478  0.51855  1.0000
  N   N6        1.0  0.89841  0.49893  0.46624  1.0000
  O   O9        1.0  0.04146  0.53196  0.57798  1.0000
  O   O10       1.0  0.90677  0.53530  0.44868  1.0000
  O   O11       1.0  0.04156  0.47841  0.54892  1.0000
  O   O12       1.0  0.90615  0.49699  0.54818  1.0000
