data_image0
_chemical_formula_structural       C14H12C7NC12H12C2NC3NC3NC15H14C2NCNC2H3CH3C2NC3NC2H3CH3C2NCNC2H3CH3C2NCNC2H3CH3C2NC3NC2H3CH3C2NCNC2H3CH3C3NC2NC5NC3NC17H14CNC2NC4NC18H14C2NC19H12C2HC6H3C2HC4H3C2HC6H3C2HC6H3C2HC4H3C2HC6H3
_chemical_formula_sum              "C216 H138 N24"
_cell_length_a       50.1891
_cell_length_b       50.1891
_cell_length_c       15.0108
_cell_angle_alpha    90.031
_cell_angle_beta     89.969
_cell_angle_gamma    120

_space_group_name_H-M_alt    "P 1"
_space_group_IT_number       1

loop_
  _space_group_symop_operation_xyz
  'x, y, z'

loop_
  _atom_site_type_symbol
  _atom_site_label
  _atom_site_symmetry_multiplicity
  _atom_site_fract_x
  _atom_site_fract_y
  _atom_site_fract_z
  _atom_site_occupancy
  C   C1        1.0  0.95729  0.53950  0.33345  1.0000
  C   C2        1.0  0.08275  0.53104  0.33301  1.0000
  C   C3        1.0  0.09242  0.56298  0.33333  1.0000
  C   C4        1.0  0.12262  0.61436  0.33017  1.0000
  C   C5        1.0  0.12288  0.58710  0.33319  1.0000
  C   C6        1.0  0.13109  0.71269  0.26847  1.0000
  C   C7        1.0  0.10784  0.68156  0.26745  1.0000
  C   C8        1.0  0.10612  0.52249  0.33080  1.0000
  C   C9        1.0  0.15101  0.52454  0.25923  1.0000
  C   C10       1.0  0.12678  0.53098  0.25834  1.0000
  C   C11       1.0  0.94196  0.42095  0.26719  1.0000
  C   C12       1.0  0.91881  0.38978  0.26821  1.0000
  C   C13       1.0  0.92297  0.57146  0.25816  1.0000
  C   C14       1.0  0.89868  0.57780  0.25899  1.0000
  H   H1        1.0  0.88281  0.56867  0.20896  1.0000
  H   H2        1.0  0.92443  0.55897  0.20637  1.0000
  H   H3        1.0  0.99541  0.63724  0.33362  1.0000
  H   H4        1.0  0.95733  0.42882  0.21550  1.0000
  H   H5        1.0  0.91914  0.37590  0.21913  1.0000
  H   H6        1.0  0.05429  0.46525  0.33381  1.0000
  H   H7        1.0  0.14206  0.63547  0.32738  1.0000
  H   H8        1.0  0.14253  0.58578  0.33357  1.0000
  H   H9        1.0  0.12538  0.54348  0.20652  1.0000
  H   H10       1.0  0.16690  0.53361  0.20919  1.0000
  H   H11       1.0  0.09252  0.67371  0.21566  1.0000
  H   H12       1.0  0.13087  0.72658  0.21932  1.0000
  C   C15       1.0  0.44880  0.45830  0.33495  1.0000
  C   C16       1.0  0.45401  0.50550  0.33668  1.0000
  C   C17       1.0  0.53612  0.49446  0.33293  1.0000
  C   C18       1.0  0.59475  0.59509  0.33672  1.0000
  C   C19       1.0  0.59996  0.64229  0.33496  1.0000
  C   C20       1.0  0.54459  0.62840  0.33263  1.0000
  C   C21       1.0  0.51265  0.60612  0.33287  1.0000
  N   N1        1.0  0.49913  0.57506  0.33436  1.0000
  C   C22       1.0  0.46127  0.58494  0.32966  1.0000
  C   C23       1.0  0.48853  0.61246  0.33249  1.0000
  C   C24       1.0  0.36293  0.49503  0.26820  1.0000
  C   C25       1.0  0.39406  0.50293  0.26713  1.0000
  C   C26       1.0  0.55315  0.66032  0.33040  1.0000
  C   C27       1.0  0.56926  0.72397  0.32674  1.0000
  C   C28       1.0  0.55113  0.70314  0.25875  1.0000
  C   C29       1.0  0.54468  0.67247  0.25791  1.0000
  C   C30       1.0  0.65469  0.59768  0.26702  1.0000
  C   C31       1.0  0.68585  0.60567  0.26805  1.0000
  C   C32       1.0  0.50414  0.42815  0.25774  1.0000
  C   C33       1.0  0.49780  0.39752  0.25861  1.0000
  H   H13       1.0  0.50693  0.39076  0.20857  1.0000
  H   H14       1.0  0.51663  0.44208  0.20593  1.0000
  H   H15       1.0  0.43838  0.43487  0.33351  1.0000
  H   H16       1.0  0.64683  0.60516  0.21531  1.0000
  H   H17       1.0  0.69973  0.61986  0.21900  1.0000
  H   H18       1.0  0.61039  0.66572  0.33343  1.0000
  H   H19       1.0  0.44016  0.58327  0.32666  1.0000
  H   H20       1.0  0.48985  0.63343  0.33293  1.0000
  H   H21       1.0  0.53221  0.65857  0.20602  1.0000
  H   H22       1.0  0.54207  0.70994  0.20869  1.0000
  H   H23       1.0  0.40189  0.49539  0.21541  1.0000
  H   H24       1.0  0.34902  0.48086  0.21914  1.0000
  C   C34       1.0  0.61735  0.06721  0.33484  1.0000
  C   C35       1.0  0.57015  0.02521  0.33646  1.0000
  N   N2        1.0  0.56802  0.05113  0.33445  1.0000
  C   C36       1.0  0.60345  0.10868  0.33253  1.0000
  C   C37       1.0  0.58118  0.11835  0.33279  1.0000
  C   C38       1.0  0.48055  0.07635  0.33640  1.0000
  N   N3        1.0  0.48268  0.05043  0.33432  1.0000
  C   C39       1.0  0.43335  0.03435  0.33467  1.0000
  C   C40       1.0  0.44725  0.99288  0.33247  1.0000
  C   C41       1.0  0.46952  0.98321  0.33272  1.0000
  N   N4        1.0  0.50059  0.00076  0.33417  1.0000
  C   C42       1.0  0.49071  0.95301  0.32952  1.0000
  C   C43       1.0  0.46319  0.95276  0.33235  1.0000
  C   C44       1.0  0.55540  0.97053  0.33691  1.0000
  C   C45       1.0  0.56899  0.92126  0.33378  1.0000
  C   C46       1.0  0.58062  0.94458  0.26786  1.0000
  C   C47       1.0  0.57272  0.96782  0.26683  1.0000
  C   C48       1.0  0.41533  0.96951  0.33032  1.0000
  C   C49       1.0  0.35169  0.92196  0.32684  1.0000
  C   C50       1.0  0.37251  0.92462  0.25882  1.0000
  C   C51       1.0  0.40316  0.94887  0.25781  1.0000
  C   C52       1.0  0.47795  0.13367  0.26673  1.0000
  C   C53       1.0  0.46997  0.15684  0.26775  1.0000
  C   C54       1.0  0.64751  0.15267  0.25777  1.0000
  C   C55       1.0  0.69897  0.17970  0.32676  1.0000
  C   C56       1.0  0.67815  0.17695  0.25871  1.0000
  H   H25       1.0  0.68493  0.19282  0.20865  1.0000
  H   H26       1.0  0.63361  0.15122  0.20591  1.0000
  H   H27       1.0  0.64078  0.08022  0.33325  1.0000
  H   H28       1.0  0.54884  0.05098  0.33207  1.0000
  H   H29       1.0  0.50187  0.05058  0.33211  1.0000
  H   H30       1.0  0.47048  0.11831  0.21502  1.0000
  H   H31       1.0  0.45579  0.15653  0.21867  1.0000
  H   H32       1.0  0.40992  0.02134  0.33321  1.0000
  H   H33       1.0  0.49239  0.93358  0.32646  1.0000
  H   H34       1.0  0.44222  0.93310  0.33277  1.0000
  H   H35       1.0  0.41706  0.95024  0.20600  1.0000
  H   H36       1.0  0.36569  0.90873  0.20881  1.0000
  H   H37       1.0  0.58023  0.98315  0.21509  1.0000
  H   H38       1.0  0.59478  0.94483  0.21876  1.0000
  C   C57       1.0  0.32041  0.50181  0.33061  1.0000
  C   C58       1.0  0.30595  0.50406  0.25108  1.0000
  N   N5        1.0  0.27765  0.50133  0.25644  1.0000
  C   C59       1.0  0.26184  0.49742  0.33296  1.0000
  N   N6        1.0  0.21852  0.49462  0.25540  1.0000
  C   C60       1.0  0.19165  0.49491  0.24941  1.0000
  C   C61       1.0  0.32025  0.51249  0.16144  1.0000
  H   H39       1.0  0.34395  0.53138  0.16615  1.0000
  H   H40       1.0  0.30791  0.52003  0.11764  1.0000
  H   H41       1.0  0.31974  0.49267  0.13000  1.0000
  C   C62       1.0  0.17755  0.48739  0.15951  1.0000
  H   H42       1.0  0.17859  0.46777  0.13211  1.0000
  H   H43       1.0  0.19019  0.50704  0.11525  1.0000
  H   H44       1.0  0.15338  0.48103  0.16040  1.0000
  C   C63       1.0  0.57390  0.89532  0.33027  1.0000
  C   C64       1.0  0.57165  0.87861  0.25072  1.0000
  N   N7        1.0  0.57435  0.85302  0.25610  1.0000
  C   C65       1.0  0.57827  0.84113  0.33259  1.0000
  C   C66       1.0  0.57876  0.81329  0.33217  1.0000
  C   C67       1.0  0.57543  0.75527  0.32742  1.0000
  N   N8        1.0  0.58103  0.80057  0.25501  1.0000
  C   C68       1.0  0.58070  0.77339  0.24901  1.0000
  C   C69       1.0  0.56313  0.88440  0.16115  1.0000
  H   H45       1.0  0.54422  0.88916  0.16599  1.0000
  H   H46       1.0  0.55559  0.86449  0.11738  1.0000
  H   H47       1.0  0.58290  0.90370  0.12957  1.0000
  C   C70       1.0  0.58831  0.76683  0.15916  1.0000
  H   H48       1.0  0.60796  0.78750  0.13190  1.0000
  H   H49       1.0  0.56870  0.75983  0.11476  1.0000
  H   H50       1.0  0.59467  0.74902  0.16009  1.0000
  C   C71       1.0  0.18037  0.75521  0.33084  1.0000
  C   C72       1.0  0.19705  0.76967  0.25124  1.0000
  N   N9        1.0  0.22264  0.79796  0.25654  1.0000
  C   C73       1.0  0.23454  0.81380  0.33301  1.0000
  N   N10       1.0  0.27507  0.85708  0.25532  1.0000
  C   C74       1.0  0.30225  0.88393  0.24923  1.0000
  C   C75       1.0  0.19126  0.75531  0.16170  1.0000
  H   H51       1.0  0.18646  0.73162  0.16661  1.0000
  H   H52       1.0  0.21118  0.76763  0.11795  1.0000
  H   H53       1.0  0.17198  0.75578  0.13006  1.0000
  C   C76       1.0  0.30879  0.89804  0.15935  1.0000
  H   H54       1.0  0.28811  0.89700  0.13212  1.0000
  H   H55       1.0  0.31578  0.88541  0.11496  1.0000
  H   H56       1.0  0.32660  0.92222  0.16021  1.0000
  C   C77       1.0  0.72850  0.59918  0.33056  1.0000
  C   C78       1.0  0.74307  0.59707  0.25101  1.0000
  N   N11       1.0  0.77144  0.59999  0.25641  1.0000
  C   C79       1.0  0.78726  0.60400  0.33293  1.0000
  N   N12       1.0  0.83075  0.60714  0.25534  1.0000
  C   C80       1.0  0.85773  0.60705  0.24933  1.0000
  C   C81       1.0  0.72878  0.58847  0.16141  1.0000
  H   H57       1.0  0.70513  0.56948  0.16621  1.0000
  H   H58       1.0  0.74122  0.58101  0.11770  1.0000
  H   H59       1.0  0.72914  0.60818  0.12980  1.0000
  C   C82       1.0  0.87188  0.61473  0.15949  1.0000
  H   H60       1.0  0.87073  0.63431  0.13230  1.0000
  H   H61       1.0  0.85936  0.59510  0.11504  1.0000
  H   H62       1.0  0.89609  0.62122  0.16041  1.0000
  C   C83       1.0  0.47648  0.20603  0.33022  1.0000
  C   C84       1.0  0.47861  0.22269  0.25068  1.0000
  N   N13       1.0  0.47566  0.24813  0.25604  1.0000
  C   C85       1.0  0.47163  0.25995  0.33257  1.0000
  C   C86       1.0  0.47086  0.28764  0.33215  1.0000
  C   C87       1.0  0.47368  0.34543  0.32737  1.0000
  N   N14       1.0  0.46845  0.30025  0.25498  1.0000
  C   C88       1.0  0.46851  0.32730  0.24898  1.0000
  C   C89       1.0  0.48713  0.21691  0.16104  1.0000
  H   H63       1.0  0.50610  0.21222  0.16574  1.0000
  H   H64       1.0  0.49460  0.23680  0.11729  1.0000
  H   H65       1.0  0.46738  0.19756  0.12953  1.0000
  C   C90       1.0  0.46089  0.33377  0.15911  1.0000
  H   H66       1.0  0.44133  0.31304  0.13182  1.0000
  H   H67       1.0  0.48054  0.34088  0.11475  1.0000
  H   H68       1.0  0.45439  0.35149  0.16000  1.0000
  C   C91       1.0  0.86965  0.34710  0.33066  1.0000
  C   C92       1.0  0.85301  0.33255  0.25109  1.0000
  N   N15       1.0  0.82756  0.30417  0.25643  1.0000
  C   C93       1.0  0.81572  0.28833  0.33292  1.0000
  N   N16       1.0  0.77542  0.24484  0.25526  1.0000
  C   C94       1.0  0.74836  0.21788  0.24919  1.0000
  C   C95       1.0  0.85873  0.34686  0.16151  1.0000
  H   H69       1.0  0.86338  0.37050  0.16636  1.0000
  H   H70       1.0  0.83884  0.33442  0.11778  1.0000
  H   H71       1.0  0.87810  0.34651  0.12989  1.0000
  C   C96       1.0  0.74194  0.20373  0.15935  1.0000
  H   H72       1.0  0.76269  0.20487  0.13224  1.0000
  H   H73       1.0  0.73487  0.21625  0.11486  1.0000
  H   H74       1.0  0.72421  0.17952  0.16025  1.0000
  C   C97       1.0  0.00843  0.62682  0.33517  1.0000
  C   C98       1.0  0.04005  0.64277  0.33976  1.0000
  C   C99       1.0  0.05043  0.62163  0.33692  1.0000
  N   N17       1.0  0.02451  0.59357  0.33492  1.0000
  C   C100      1.0  0.99838  0.59534  0.33455  1.0000
  C   C101      1.0  0.96696  0.57145  0.33307  1.0000
  N   N18       1.0  0.97484  0.52599  0.33481  1.0000
  C   C102      1.0  0.95767  0.49489  0.33392  1.0000
  C   C103      1.0  0.92709  0.48812  0.33030  1.0000
  C   C104      1.0  0.92684  0.51539  0.33328  1.0000
  C   C105      1.0  0.96775  0.47294  0.33606  1.0000
  C   C106      1.0  0.99928  0.48087  0.33686  1.0000
  N   N19       1.0  0.02520  0.50892  0.33482  1.0000
  C   C107      1.0  0.05133  0.50715  0.33449  1.0000
  C   C108      1.0  0.04128  0.47567  0.33512  1.0000
  C   C109      1.0  0.00965  0.45973  0.33984  1.0000
  N   N20       1.0  0.07487  0.57650  0.33474  1.0000
  C   C110      1.0  0.09204  0.60759  0.33389  1.0000
  C   C111      1.0  0.08196  0.62955  0.33613  1.0000
  C   C112      1.0  0.10511  0.66154  0.33754  1.0000
  C   C113      1.0  0.12651  0.67377  0.40821  1.0000
  C   C114      1.0  0.15133  0.70409  0.40459  1.0000
  C   C115      1.0  0.15441  0.72439  0.33439  1.0000
  C   C116      1.0  0.10963  0.50594  0.40164  1.0000
  C   C117      1.0  0.13210  0.49703  0.39803  1.0000
  C   C118      1.0  0.15367  0.50639  0.32718  1.0000
  C   C119      1.0  0.94461  0.44094  0.33732  1.0000
  C   C120      1.0  0.89547  0.37800  0.33413  1.0000
  C   C121      1.0  0.89843  0.39830  0.40430  1.0000
  C   C122      1.0  0.92315  0.42867  0.40789  1.0000
  C   C123      1.0  0.94359  0.57999  0.33071  1.0000
  C   C124      1.0  0.94001  0.59653  0.40150  1.0000
  C   C125      1.0  0.91747  0.60535  0.39784  1.0000
  C   C126      1.0  0.89591  0.59589  0.32699  1.0000
  H   H75       1.0  0.91674  0.61843  0.44898  1.0000
  H   H76       1.0  0.95438  0.60300  0.45546  1.0000
  H   H77       1.0  0.05289  0.66620  0.34294  1.0000
  H   H78       1.0  0.02466  0.57453  0.33287  1.0000
  H   H79       1.0  0.02506  0.52796  0.33247  1.0000
  H   H80       1.0  0.90719  0.51671  0.33366  1.0000
  H   H81       1.0  0.90765  0.46702  0.32736  1.0000
  H   H82       1.0  0.92427  0.44240  0.45990  1.0000
  H   H83       1.0  0.88219  0.39145  0.45339  1.0000
  H   H84       1.0  0.99682  0.43630  0.34316  1.0000
  H   H85       1.0  0.09522  0.49951  0.45555  1.0000
  H   H86       1.0  0.13272  0.48389  0.44910  1.0000
  H   H87       1.0  0.16758  0.71088  0.45363  1.0000
  H   H88       1.0  0.12538  0.66001  0.46012  1.0000
  C   C127      1.0  0.43286  0.47398  0.33986  1.0000
  N   N21       1.0  0.48206  0.50762  0.33461  1.0000
  C   C128      1.0  0.48028  0.47972  0.33427  1.0000
  C   C129      1.0  0.50417  0.47219  0.33262  1.0000
  N   N22       1.0  0.54964  0.52553  0.33443  1.0000
  C   C130      1.0  0.58073  0.53945  0.33354  1.0000
  C   C131      1.0  0.58750  0.51565  0.32982  1.0000
  C   C132      1.0  0.56023  0.48812  0.33267  1.0000
  C   C133      1.0  0.60268  0.57149  0.33581  1.0000
  N   N23       1.0  0.56671  0.59296  0.33465  1.0000
  C   C134      1.0  0.56848  0.62086  0.33427  1.0000
  C   C135      1.0  0.61590  0.62661  0.33986  1.0000
  C   C136      1.0  0.46804  0.56113  0.33342  1.0000
  C   C137      1.0  0.44608  0.52910  0.33574  1.0000
  C   C138      1.0  0.41409  0.52026  0.33718  1.0000
  C   C139      1.0  0.40188  0.52948  0.40782  1.0000
  C   C140      1.0  0.37155  0.52397  0.40424  1.0000
  C   C141      1.0  0.35123  0.50669  0.33410  1.0000
  C   C142      1.0  0.56968  0.68039  0.40125  1.0000
  C   C143      1.0  0.57858  0.71177  0.39765  1.0000
  C   C144      1.0  0.63468  0.58034  0.33711  1.0000
  C   C145      1.0  0.69761  0.59412  0.33399  1.0000
  C   C146      1.0  0.67730  0.57681  0.40413  1.0000
  C   C147      1.0  0.64693  0.57117  0.40771  1.0000
  C   C148      1.0  0.49563  0.44028  0.33028  1.0000
  C   C149      1.0  0.47910  0.42019  0.40110  1.0000
  C   C150      1.0  0.47028  0.38883  0.39749  1.0000
  C   C151      1.0  0.47972  0.37669  0.32664  1.0000
  H   H89       1.0  0.45720  0.37504  0.44864  1.0000
  H   H90       1.0  0.47266  0.42812  0.45509  1.0000
  H   H91       1.0  0.40943  0.46339  0.34281  1.0000
  H   H92       1.0  0.50109  0.52681  0.33208  1.0000
  H   H93       1.0  0.54767  0.57378  0.33228  1.0000
  H   H94       1.0  0.55892  0.46716  0.33310  1.0000
  H   H95       1.0  0.60861  0.51731  0.32692  1.0000
  H   H96       1.0  0.63318  0.55853  0.45963  1.0000
  H   H97       1.0  0.68413  0.56739  0.45318  1.0000
  H   H98       1.0  0.63933  0.63720  0.34281  1.0000
  H   H99       1.0  0.57609  0.67244  0.45522  1.0000
  H   H100      1.0  0.59170  0.72555  0.44878  1.0000
  H   H101      1.0  0.36477  0.53346  0.45325  1.0000
  H   H102      1.0  0.41565  0.54215  0.45968  1.0000
  C   C152      1.0  0.60167  0.03558  0.33958  1.0000
  C   C153      1.0  0.59592  0.07726  0.33415  1.0000
  N   N24       1.0  0.55011  0.10079  0.33423  1.0000
  C   C154      1.0  0.53618  0.11797  0.33330  1.0000
  C   C155      1.0  0.55999  0.14854  0.32960  1.0000
  C   C156      1.0  0.58751  0.14880  0.33251  1.0000
  C   C157      1.0  0.50414  0.10788  0.33553  1.0000
  C   C158      1.0  0.45478  0.02430  0.33401  1.0000
  C   C159      1.0  0.44903  0.06597  0.33945  1.0000
  C   C160      1.0  0.51452  0.98359  0.33323  1.0000
  C   C161      1.0  0.54656  0.99368  0.33551  1.0000
  C   C162      1.0  0.54619  0.94912  0.40755  1.0000
  C   C163      1.0  0.55172  0.92432  0.40394  1.0000
  C   C164      1.0  0.39528  0.96601  0.40120  1.0000
  C   C165      1.0  0.36390  0.94354  0.39767  1.0000
  C   C166      1.0  0.49529  0.13103  0.33682  1.0000
  C   C167      1.0  0.48152  0.18018  0.33366  1.0000
  C   C168      1.0  0.49883  0.17721  0.40382  1.0000
  C   C169      1.0  0.50447  0.15248  0.40739  1.0000
  C   C170      1.0  0.63536  0.13205  0.33029  1.0000
  C   C171      1.0  0.65542  0.13562  0.40118  1.0000
  C   C172      1.0  0.68679  0.15815  0.39762  1.0000
  H   H103      1.0  0.70056  0.15885  0.44878  1.0000
  H   H104      1.0  0.64748  0.12124  0.45511  1.0000
  H   H105      1.0  0.61227  0.02275  0.34245  1.0000
  H   H106      1.0  0.60848  0.16845  0.33296  1.0000
  H   H107      1.0  0.55832  0.16798  0.32667  1.0000
  H   H108      1.0  0.51709  0.15138  0.45936  1.0000
  H   H109      1.0  0.50825  0.19347  0.45287  1.0000
  H   H110      1.0  0.43843  0.07880  0.34255  1.0000
  H   H111      1.0  0.40325  0.98040  0.45515  1.0000
  H   H112      1.0  0.35013  0.94289  0.44884  1.0000
  H   H113      1.0  0.54225  0.90807  0.45299  1.0000
  H   H114      1.0  0.53353  0.95024  0.45944  1.0000
  C   C173      1.0  0.27545  0.49647  0.41449  1.0000
  C   C174      1.0  0.30387  0.49718  0.41150  1.0000
  H   H115      1.0  0.31314  0.49547  0.47047  1.0000
  C   C175      1.0  0.23349  0.49689  0.33256  1.0000
  C   C176      1.0  0.17877  0.50017  0.32784  1.0000
  C   C177      1.0  0.19345  0.50124  0.40984  1.0000
  C   C178      1.0  0.22000  0.49842  0.41381  1.0000
  C   C179      1.0  0.23393  0.49803  0.49518  1.0000
  C   C180      1.0  0.26090  0.49600  0.49552  1.0000
  H   H116      1.0  0.22440  0.49889  0.55464  1.0000
  H   H117      1.0  0.27068  0.49589  0.55522  1.0000
  H   H118      1.0  0.18545  0.50515  0.46825  1.0000
  C   C181      1.0  0.57923  0.85573  0.41414  1.0000
  C   C182      1.0  0.57851  0.88343  0.41115  1.0000
  H   H119      1.0  0.58023  0.89443  0.47013  1.0000
  C   C183      1.0  0.57437  0.76892  0.40944  1.0000
  C   C184      1.0  0.57721  0.79830  0.41342  1.0000
  C   C185      1.0  0.57760  0.81264  0.49480  1.0000
  C   C186      1.0  0.57971  0.84167  0.49515  1.0000
  H   H120      1.0  0.57672  0.80225  0.55425  1.0000
  H   H121      1.0  0.57974  0.85155  0.55486  1.0000
  H   H122      1.0  0.57046  0.75703  0.46784  1.0000
  C   C187      1.0  0.21996  0.80020  0.41459  1.0000
  C   C188      1.0  0.19225  0.77178  0.41168  1.0000
  H   H123      1.0  0.18129  0.76251  0.47070  1.0000
  C   C189      1.0  0.26238  0.84213  0.33252  1.0000
  C   C190      1.0  0.32039  0.89683  0.32761  1.0000
  C   C191      1.0  0.30677  0.88216  0.40966  1.0000
  C   C192      1.0  0.27739  0.85562  0.41373  1.0000
  C   C193      1.0  0.26307  0.84172  0.49514  1.0000
  C   C194      1.0  0.23406  0.81477  0.49557  1.0000
  H   H124      1.0  0.27348  0.85126  0.55457  1.0000
  H   H125      1.0  0.22417  0.80498  0.55529  1.0000
  H   H126      1.0  0.31867  0.89018  0.46804  1.0000
  C   C195      1.0  0.77356  0.60484  0.41446  1.0000
  C   C196      1.0  0.74503  0.60390  0.41146  1.0000
  H   H127      1.0  0.73569  0.60552  0.47045  1.0000
  C   C197      1.0  0.81572  0.60475  0.33251  1.0000
  C   C198      1.0  0.87067  0.60190  0.32773  1.0000
  C   C199      1.0  0.85591  0.60072  0.40974  1.0000
  C   C200      1.0  0.82924  0.60334  0.41375  1.0000
  C   C201      1.0  0.81523  0.60361  0.49513  1.0000
  C   C202      1.0  0.78814  0.60541  0.49548  1.0000
  H   H128      1.0  0.82479  0.60281  0.55457  1.0000
  H   H129      1.0  0.77829  0.60544  0.55519  1.0000
  H   H130      1.0  0.86398  0.59692  0.46815  1.0000
  C   C203      1.0  0.47080  0.24544  0.41411  1.0000
  C   C204      1.0  0.47175  0.21785  0.41112  1.0000
  H   H131      1.0  0.47011  0.20690  0.47009  1.0000
  C   C205      1.0  0.47486  0.33188  0.40939  1.0000
  C   C206      1.0  0.47227  0.30261  0.41339  1.0000
  C   C207      1.0  0.47201  0.28836  0.49477  1.0000
  C   C208      1.0  0.47022  0.25947  0.49512  1.0000
  H   H132      1.0  0.47280  0.29872  0.55421  1.0000
  H   H133      1.0  0.47020  0.24962  0.55483  1.0000
  H   H134      1.0  0.47871  0.34378  0.46777  1.0000
  C   C209      1.0  0.83022  0.30203  0.41448  1.0000
  C   C210      1.0  0.85780  0.33057  0.41154  1.0000
  H   H135      1.0  0.86874  0.33989  0.47053  1.0000
  C   C211      1.0  0.78802  0.25987  0.33245  1.0000
  C   C212      1.0  0.73022  0.20492  0.32756  1.0000
  C   C213      1.0  0.74375  0.21967  0.40960  1.0000
  C   C214      1.0  0.77303  0.24635  0.41366  1.0000
  C   C215      1.0  0.78725  0.26036  0.49506  1.0000
  C   C216      1.0  0.81618  0.28742  0.49548  1.0000
  H   H136      1.0  0.77687  0.25080  0.55449  1.0000
  H   H137      1.0  0.82597  0.29731  0.55520  1.0000
  H   H138      1.0  0.73183  0.21162  0.46796  1.0000
