data_image0
_chemical_formula_structural       CHNC2HC7H4CNCH2CHC7H4CNCH2CHC5H2NH2NO2NC5H2NH2NO2NC4HNH2NO2NC11H6NCNC2H2C11H6NCNC2H2C3HC4HN2H2O2NC3HC4HN2H2O2NCHC4HNHO2N
_chemical_formula_sum              "C84 H54 N24 O12"
_cell_length_a       44.2364
_cell_length_b       44.2364
_cell_length_c       14.9695
_cell_angle_alpha    90
_cell_angle_beta     90
_cell_angle_gamma    120

_space_group_name_H-M_alt    "P 1"
_space_group_IT_number       1

loop_
  _space_group_symop_operation_xyz
  'x, y, z'

loop_
  _atom_site_type_symbol
  _atom_site_label
  _atom_site_symmetry_multiplicity
  _atom_site_fract_x
  _atom_site_fract_y
  _atom_site_fract_z
  _atom_site_occupancy
  C   C1        1.0  0.01978  0.50907  0.33898  1.0000
  H   H1        1.0  0.02454  0.54750  0.24661  1.0000
  N   N1        1.0  0.02349  0.46870  0.44450  1.0000
  C   C2        1.0  0.03811  0.53909  0.28484  1.0000
  C   C3        1.0  0.03897  0.49789  0.39263  1.0000
  H   H2        1.0  0.03728  0.46130  0.47918  1.0000
  C   C4        1.0  0.37899  0.63902  0.32776  1.0000
  C   C5        1.0  0.36353  0.74049  0.32775  1.0000
  C   C6        1.0  0.42448  0.61001  0.33282  1.0000
  C   C7        1.0  0.43800  0.64654  0.33145  1.0000
  C   C8        1.0  0.41577  0.66072  0.32892  1.0000
  C   C9        1.0  0.40012  0.76357  0.32869  1.0000
  C   C10       1.0  0.41436  0.80004  0.33120  1.0000
  H   H3        1.0  0.42701  0.68732  0.32841  1.0000
  H   H4        1.0  0.46439  0.66342  0.33265  1.0000
  H   H5        1.0  0.41703  0.75413  0.32809  1.0000
  H   H6        1.0  0.44094  0.81555  0.33243  1.0000
  C   C11       1.0  0.34897  0.70348  0.32658  1.0000
  N   N2        1.0  0.36954  0.68871  0.32669  1.0000
  C   C12       1.0  0.35655  0.65358  0.32659  1.0000
  H   H7        1.0  0.24842  0.66341  0.32807  1.0000
  H   H8        1.0  0.18700  0.62591  0.33241  1.0000
  C   C13       1.0  0.44737  0.59698  0.33682  1.0000
  H   H9        1.0  0.47282  0.61386  0.34228  1.0000
  C   C14       1.0  0.62405  0.36301  0.34237  1.0000
  C   C15       1.0  0.63953  0.26155  0.34237  1.0000
  C   C16       1.0  0.57873  0.39222  0.34542  1.0000
  C   C17       1.0  0.56508  0.35567  0.34492  1.0000
  C   C18       1.0  0.58725  0.34140  0.34330  1.0000
  C   C19       1.0  0.60294  0.23855  0.34278  1.0000
  C   C20       1.0  0.58861  0.20208  0.34430  1.0000
  H   H10       1.0  0.57596  0.31480  0.34316  1.0000
  H   H11       1.0  0.53867  0.33890  0.34576  1.0000
  H   H12       1.0  0.58607  0.24805  0.34235  1.0000
  H   H13       1.0  0.56201  0.18665  0.34520  1.0000
  C   C21       1.0  0.65410  0.29856  0.34166  1.0000
  N   N3        1.0  0.63352  0.31333  0.34172  1.0000
  C   C22       1.0  0.64650  0.34845  0.34166  1.0000
  H   H14       1.0  0.75449  0.33853  0.34233  1.0000
  H   H15       1.0  0.81589  0.37586  0.34519  1.0000
  C   C23       1.0  0.55606  0.40551  0.34819  1.0000
  H   H16       1.0  0.53082  0.38925  0.36018  1.0000
  C   C24       1.0  0.45552  0.54765  0.33466  1.0000
  C   C25       1.0  0.44425  0.51724  0.28247  1.0000
  C   C26       1.0  0.46343  0.49951  0.28488  1.0000
  C   C27       1.0  0.52738  0.48941  0.25872  1.0000
  C   C28       1.0  0.54588  0.47098  0.25623  1.0000
  H   H17       1.0  0.52625  0.50197  0.20239  1.0000
  H   H18       1.0  0.45499  0.47751  0.24670  1.0000
  N   N4        1.0  0.56128  0.47005  0.17833  1.0000
  H   H19       1.0  0.55972  0.48170  0.12478  1.0000
  H   H20       1.0  0.57408  0.45756  0.17319  1.0000
  N   N5        1.0  0.41426  0.50550  0.22800  1.0000
  O   O1        1.0  0.39091  0.47526  0.24953  1.0000
  O   O2        1.0  0.42150  0.50540  0.14686  1.0000
  N   N6        1.0  0.43728  0.56423  0.33185  1.0000
  C   C29       1.0  0.45492  0.90838  0.33467  1.0000
  C   C30       1.0  0.48530  0.92753  0.28237  1.0000
  C   C31       1.0  0.50302  0.96444  0.28480  1.0000
  C   C32       1.0  0.51311  0.03848  0.25878  1.0000
  C   C33       1.0  0.53153  0.07541  0.25630  1.0000
  H   H21       1.0  0.50054  0.02479  0.20246  1.0000
  H   H22       1.0  0.52500  0.97801  0.24656  1.0000
  N   N7        1.0  0.53243  0.09173  0.17840  1.0000
  H   H23       1.0  0.52079  0.07853  0.12486  1.0000
  H   H24       1.0  0.54491  0.11702  0.17328  1.0000
  N   N8        1.0  0.49701  0.90929  0.22780  1.0000
  O   O3        1.0  0.52727  0.91619  0.24919  1.0000
  O   O4        1.0  0.49706  0.91663  0.14668  1.0000
  N   N9        1.0  0.43834  0.87357  0.33183  1.0000
  C   C34       1.0  0.09417  0.54705  0.33469  1.0000
  C   C35       1.0  0.07501  0.55828  0.28241  1.0000
  C   C36       1.0  0.96407  0.47511  0.25881  1.0000
  C   C37       1.0  0.92713  0.45661  0.25631  1.0000
  H   H25       1.0  0.97776  0.47625  0.20247  1.0000
  N   N10       1.0  0.91082  0.44120  0.17841  1.0000
  H   H26       1.0  0.92402  0.44274  0.12489  1.0000
  H   H27       1.0  0.88553  0.42839  0.17328  1.0000
  N   N11       1.0  0.09325  0.58825  0.22786  1.0000
  O   O5        1.0  0.08634  0.61160  0.24929  1.0000
  O   O6        1.0  0.08591  0.58097  0.14674  1.0000
  N   N12       1.0  0.12898  0.56529  0.33184  1.0000
  C   C38       1.0  0.26206  0.62356  0.32772  1.0000
  C   C39       1.0  0.23898  0.63706  0.32867  1.0000
  C   C40       1.0  0.20251  0.61484  0.33117  1.0000
  C   C41       1.0  0.18757  0.57809  0.33277  1.0000
  C   C42       1.0  0.21058  0.56456  0.33139  1.0000
  C   C43       1.0  0.24698  0.58679  0.32885  1.0000
  C   C44       1.0  0.36550  0.60244  0.32871  1.0000
  C   C45       1.0  0.38773  0.58820  0.33122  1.0000
  C   C46       1.0  0.39255  0.81498  0.33282  1.0000
  C   C47       1.0  0.35602  0.79198  0.33144  1.0000
  C   C48       1.0  0.34184  0.75557  0.32889  1.0000
  H   H28       1.0  0.20105  0.53817  0.33258  1.0000
  H   H29       1.0  0.26233  0.57554  0.32834  1.0000
  H   H30       1.0  0.33914  0.58553  0.32809  1.0000
  H   H31       1.0  0.37665  0.56162  0.33243  1.0000
  H   H32       1.0  0.33915  0.80150  0.33262  1.0000
  H   H33       1.0  0.31524  0.74021  0.32839  1.0000
  N   N13       1.0  0.32120  0.63301  0.32668  1.0000
  C   C49       1.0  0.29907  0.64601  0.32656  1.0000
  N   N14       1.0  0.31385  0.68135  0.32667  1.0000
  C   C50       1.0  0.40558  0.85090  0.33681  1.0000
  C   C51       1.0  0.15165  0.55520  0.33680  1.0000
  H   H34       1.0  0.14306  0.52974  0.34227  1.0000
  H   H35       1.0  0.38872  0.85949  0.34235  1.0000
  C   C52       1.0  0.74100  0.37849  0.34237  1.0000
  C   C53       1.0  0.76400  0.36490  0.34277  1.0000
  C   C54       1.0  0.80046  0.38704  0.34429  1.0000
  C   C55       1.0  0.81553  0.42380  0.34539  1.0000
  C   C56       1.0  0.79263  0.43745  0.34493  1.0000
  C   C57       1.0  0.75619  0.41529  0.34334  1.0000
  C   C58       1.0  0.63764  0.39960  0.34280  1.0000
  C   C59       1.0  0.61550  0.41392  0.34433  1.0000
  C   C60       1.0  0.61031  0.18702  0.34538  1.0000
  C   C61       1.0  0.64686  0.20991  0.34490  1.0000
  C   C62       1.0  0.66114  0.24636  0.34330  1.0000
  H   H36       1.0  0.80228  0.46387  0.34578  1.0000
  H   H37       1.0  0.74088  0.42658  0.34320  1.0000
  H   H38       1.0  0.66401  0.41647  0.34240  1.0000
  H   H39       1.0  0.62666  0.44052  0.34529  1.0000
  H   H40       1.0  0.66363  0.20027  0.34573  1.0000
  H   H41       1.0  0.68774  0.26167  0.34316  1.0000
  N   N15       1.0  0.68185  0.36903  0.34173  1.0000
  C   C63       1.0  0.70399  0.35605  0.34167  1.0000
  N   N16       1.0  0.68922  0.32070  0.34172  1.0000
  C   C64       1.0  0.59701  0.15105  0.34809  1.0000
  C   C65       1.0  0.85150  0.44647  0.34811  1.0000
  H   H42       1.0  0.86048  0.47172  0.35999  1.0000
  H   H43       1.0  0.61328  0.14206  0.35992  1.0000
  C   C66       1.0  0.49347  0.51121  0.33892  1.0000
  C   C67       1.0  0.50469  0.54161  0.39250  1.0000
  C   C68       1.0  0.48515  0.55899  0.39005  1.0000
  H   H44       1.0  0.49284  0.58062  0.42910  1.0000
  C   C69       1.0  0.51118  0.49176  0.33757  1.0000
  C   C70       1.0  0.54763  0.45399  0.33513  1.0000
  C   C71       1.0  0.53155  0.45615  0.41511  1.0000
  C   C72       1.0  0.51312  0.47465  0.41498  1.0000
  H   H45       1.0  0.50155  0.47612  0.47280  1.0000
  N   N17       1.0  0.53482  0.44041  0.49413  1.0000
  N   N18       1.0  0.53391  0.55534  0.44428  1.0000
  H   H46       1.0  0.54129  0.57649  0.47909  1.0000
  H   H47       1.0  0.54935  0.54568  0.44498  1.0000
  O   O7        1.0  0.55032  0.46262  0.55454  1.0000
  O   O8        1.0  0.50552  0.41757  0.52310  1.0000
  N   N19       1.0  0.56633  0.43795  0.33449  1.0000
  C   C73       1.0  0.49134  0.98277  0.33897  1.0000
  C   C74       1.0  0.46097  0.96358  0.39264  1.0000
  C   C75       1.0  0.44361  0.92666  0.39019  1.0000
  H   H48       1.0  0.42200  0.91271  0.42932  1.0000
  C   C76       1.0  0.51078  0.01994  0.33762  1.0000
  C   C77       1.0  0.54852  0.09416  0.33519  1.0000
  C   C78       1.0  0.54638  0.07591  0.41516  1.0000
  C   C79       1.0  0.52791  0.03899  0.41502  1.0000
  H   H49       1.0  0.52645  0.02595  0.47283  1.0000
  N   N20       1.0  0.56214  0.09493  0.49416  1.0000
  N   N21       1.0  0.44728  0.97906  0.44457  1.0000
  H   H50       1.0  0.42606  0.96528  0.47912  1.0000
  H   H51       1.0  0.45684  0.00416  0.44490  1.0000
  O   O9        1.0  0.53995  0.08821  0.55462  1.0000
  O   O10       1.0  0.58500  0.08848  0.52306  1.0000
  N   N22       1.0  0.56456  0.12889  0.33457  1.0000
  C   C80       1.0  0.07589  0.51744  0.39015  1.0000
  H   H52       1.0  0.08984  0.50978  0.42926  1.0000
  C   C81       1.0  0.98261  0.49134  0.33763  1.0000
  C   C82       1.0  0.90839  0.45487  0.33520  1.0000
  C   C83       1.0  0.92664  0.47098  0.41516  1.0000
  C   C84       1.0  0.96356  0.48941  0.41504  1.0000
  H   H53       1.0  0.97660  0.50101  0.47283  1.0000
  N   N23       1.0  0.90762  0.46773  0.49415  1.0000
  H   H54       1.0  0.99839  0.45320  0.44502  1.0000
  O   O11       1.0  0.91433  0.45226  0.55463  1.0000
  O   O12       1.0  0.91407  0.49704  0.52303  1.0000
  N   N24       1.0  0.87365  0.43617  0.33456  1.0000
