data_image0
_chemical_formula_structural       C7H4CNCH2CHC7H4CNCH2CHCNC3H2CO2NCNC3H2CO2NCNC3H2CO2NC11H6NCNC2H2C11H6NCNC2H2C4HC2NHCHO2HNC4HC2NHCHO2HNC4HC2NHCHO2HN
_chemical_formula_sum              "C84 H48 N18 O12"
_cell_length_a       43.9687
_cell_length_b       43.9686
_cell_length_c       15.0128
_cell_angle_alpha    90
_cell_angle_beta     90
_cell_angle_gamma    120

_space_group_name_H-M_alt    "P 1"
_space_group_IT_number       1

loop_
  _space_group_symop_operation_xyz
  'x, y, z'

loop_
  _atom_site_type_symbol
  _atom_site_label
  _atom_site_symmetry_multiplicity
  _atom_site_fract_x
  _atom_site_fract_y
  _atom_site_fract_z
  _atom_site_occupancy
  C   C1        1.0  0.37768  0.63835  0.33944  1.0000
  C   C2        1.0  0.36085  0.73949  0.33880  1.0000
  C   C3        1.0  0.42339  0.60960  0.32722  1.0000
  C   C4        1.0  0.43703  0.64629  0.32635  1.0000
  C   C5        1.0  0.41458  0.66038  0.33283  1.0000
  C   C6        1.0  0.39763  0.76287  0.33989  1.0000
  C   C7        1.0  0.41175  0.79941  0.33372  1.0000
  H   H1        1.0  0.42570  0.68712  0.33124  1.0000
  H   H2        1.0  0.46351  0.66319  0.32066  1.0000
  H   H3        1.0  0.41478  0.75358  0.34421  1.0000
  H   H4        1.0  0.43848  0.81529  0.33314  1.0000
  C   C8        1.0  0.34659  0.70239  0.34208  1.0000
  N   N1        1.0  0.36761  0.68790  0.34194  1.0000
  C   C9        1.0  0.35487  0.65265  0.34242  1.0000
  H   H5        1.0  0.24568  0.66139  0.34459  1.0000
  H   H6        1.0  0.18398  0.62343  0.33376  1.0000
  C   C10       1.0  0.44577  0.59621  0.31736  1.0000
  H   H7        1.0  0.46689  0.60905  0.27882  1.0000
  C   C11       1.0  0.62222  0.36238  0.32355  1.0000
  C   C12       1.0  0.63668  0.25979  0.32319  1.0000
  C   C13       1.0  0.57727  0.39236  0.33093  1.0000
  C   C14       1.0  0.56318  0.35554  0.32878  1.0000
  C   C15       1.0  0.58518  0.34088  0.32512  1.0000
  C   C16       1.0  0.59982  0.23700  0.32427  1.0000
  C   C17       1.0  0.58508  0.20032  0.32777  1.0000
  H   H8        1.0  0.57360  0.31409  0.32433  1.0000
  H   H9        1.0  0.53657  0.33884  0.33051  1.0000
  H   H10       1.0  0.58306  0.24681  0.32324  1.0000
  H   H11       1.0  0.55829  0.18507  0.32921  1.0000
  C   C18       1.0  0.65163  0.29701  0.32164  1.0000
  N   N2        1.0  0.63116  0.31211  0.32187  1.0000
  C   C19       1.0  0.64452  0.34747  0.32183  1.0000
  H   H12       1.0  0.75229  0.33622  0.32365  1.0000
  H   H13       1.0  0.81403  0.37321  0.32979  1.0000
  C   C20       1.0  0.55477  0.40601  0.33677  1.0000
  H   H14       1.0  0.52906  0.38947  0.34163  1.0000
  C   C21       1.0  0.47546  0.54878  0.28177  1.0000
  N   N3        1.0  0.49357  0.53141  0.28610  1.0000
  C   C22       1.0  0.54966  0.51248  0.30909  1.0000
  C   C23       1.0  0.56570  0.49147  0.30487  1.0000
  C   C24       1.0  0.54922  0.45730  0.34087  1.0000
  H   H15       1.0  0.58974  0.50112  0.27487  1.0000
  H   H16       1.0  0.47381  0.55901  0.22207  1.0000
  C   C25       1.0  0.56725  0.54653  0.27526  1.0000
  O   O1        1.0  0.57788  0.55081  0.19846  1.0000
  O   O2        1.0  0.58245  0.57247  0.32424  1.0000
  N   N4        1.0  0.56593  0.43920  0.33531  1.0000
  C   C26       1.0  0.45001  0.92694  0.28195  1.0000
  N   N5        1.0  0.46735  0.96241  0.28674  1.0000
  C   C27       1.0  0.48592  0.03740  0.31240  1.0000
  C   C28       1.0  0.50707  0.07437  0.30735  1.0000
  C   C29       1.0  0.54149  0.09195  0.34186  1.0000
  H   H17       1.0  0.49738  0.08883  0.27786  1.0000
  H   H18       1.0  0.43978  0.91517  0.22216  1.0000
  C   C30       1.0  0.45196  0.02208  0.27863  1.0000
  O   O3        1.0  0.44873  0.01616  0.19866  1.0000
  O   O4        1.0  0.42601  0.00276  0.32448  1.0000
  N   N6        1.0  0.55970  0.12675  0.33596  1.0000
  C   C31       1.0  0.07239  0.52359  0.28191  1.0000
  N   N7        1.0  0.03692  0.50544  0.28633  1.0000
  C   C32       1.0  0.96194  0.44926  0.30940  1.0000
  C   C33       1.0  0.92490  0.43324  0.30501  1.0000
  C   C34       1.0  0.90719  0.44969  0.34107  1.0000
  H   H19       1.0  0.91051  0.40922  0.27487  1.0000
  H   H20       1.0  0.08425  0.52528  0.22215  1.0000
  C   C35       1.0  0.97838  0.43169  0.27535  1.0000
  O   O5        1.0  0.97204  0.42080  0.19879  1.0000
  O   O6        1.0  0.99000  0.41725  0.32427  1.0000
  N   N8        1.0  0.87238  0.43300  0.33539  1.0000
  C   C36       1.0  0.25974  0.62154  0.33940  1.0000
  C   C37       1.0  0.23638  0.63496  0.34044  1.0000
  C   C38       1.0  0.19983  0.61254  0.33443  1.0000
  C   C39       1.0  0.18530  0.57580  0.32710  1.0000
  C   C40       1.0  0.20837  0.56217  0.32634  1.0000
  C   C41       1.0  0.24490  0.58464  0.33288  1.0000
  C   C42       1.0  0.36424  0.60156  0.34061  1.0000
  C   C43       1.0  0.38664  0.58740  0.33462  1.0000
  C   C44       1.0  0.38951  0.81392  0.32617  1.0000
  C   C45       1.0  0.35282  0.79083  0.32532  1.0000
  C   C46       1.0  0.33878  0.75431  0.33203  1.0000
  H   H21       1.0  0.19881  0.53570  0.32070  1.0000
  H   H22       1.0  0.26053  0.57354  0.33134  1.0000
  H   H23       1.0  0.33781  0.58444  0.34486  1.0000
  H   H24       1.0  0.37574  0.56066  0.33408  1.0000
  H   H25       1.0  0.33590  0.80038  0.31956  1.0000
  H   H26       1.0  0.31205  0.73866  0.33045  1.0000
  N   N9        1.0  0.31937  0.63163  0.34224  1.0000
  C   C47       1.0  0.29685  0.64436  0.34240  1.0000
  N   N10       1.0  0.31133  0.67987  0.34192  1.0000
  C   C48       1.0  0.40285  0.84968  0.31635  1.0000
  C   C49       1.0  0.14954  0.55339  0.31720  1.0000
  H   H27       1.0  0.14129  0.53231  0.27854  1.0000
  H   H28       1.0  0.39009  0.85793  0.27741  1.0000
  C   C50       1.0  0.73930  0.37685  0.32340  1.0000
  C   C51       1.0  0.76210  0.36279  0.32463  1.0000
  C   C52       1.0  0.79878  0.38473  0.32822  1.0000
  C   C53       1.0  0.81423  0.42175  0.33066  1.0000
  C   C54       1.0  0.79153  0.43587  0.32871  1.0000
  C   C55       1.0  0.75486  0.41389  0.32511  1.0000
  C   C56       1.0  0.63626  0.39924  0.32498  1.0000
  C   C57       1.0  0.61428  0.41394  0.32864  1.0000
  C   C58       1.0  0.60662  0.18485  0.33025  1.0000
  C   C59       1.0  0.64344  0.20754  0.32840  1.0000
  C   C60       1.0  0.65815  0.24422  0.32491  1.0000
  H   H29       1.0  0.80146  0.46248  0.33051  1.0000
  H   H30       1.0  0.73967  0.42549  0.32445  1.0000
  H   H31       1.0  0.66282  0.41602  0.32414  1.0000
  H   H32       1.0  0.62578  0.44072  0.33041  1.0000
  H   H33       1.0  0.66011  0.19760  0.33027  1.0000
  H   H34       1.0  0.68494  0.25940  0.32435  1.0000
  N   N11       1.0  0.68009  0.36794  0.32198  1.0000
  C   C61       1.0  0.70208  0.35457  0.32175  1.0000
  N   N12       1.0  0.68698  0.31900  0.32181  1.0000
  C   C62       1.0  0.59291  0.14868  0.33594  1.0000
  C   C63       1.0  0.85039  0.44422  0.33644  1.0000
  H   H35       1.0  0.85960  0.46995  0.34103  1.0000
  H   H36       1.0  0.60942  0.13943  0.33972  1.0000
  C   C64       1.0  0.45900  0.55216  0.35874  1.0000
  C   C65       1.0  0.49735  0.51644  0.36143  1.0000
  C   C66       1.0  0.48056  0.51818  0.44085  1.0000
  C   C67       1.0  0.46141  0.53622  0.43780  1.0000
  H   H37       1.0  0.44966  0.53851  0.49442  1.0000
  C   C68       1.0  0.51679  0.49866  0.35360  1.0000
  C   C69       1.0  0.51668  0.44509  0.38421  1.0000
  N   N13       1.0  0.50204  0.46577  0.38852  1.0000
  H   H38       1.0  0.50388  0.42092  0.41356  1.0000
  C   C70       1.0  0.48430  0.50484  0.52111  1.0000
  H   H39       1.0  0.57894  0.57239  0.38238  1.0000
  O   O7        1.0  0.45808  0.48608  0.56553  1.0000
  O   O8        1.0  0.51332  0.52068  0.55782  1.0000
  H   H40       1.0  0.51783  0.51550  0.61146  1.0000
  N   N14       1.0  0.44057  0.56857  0.35960  1.0000
  C   C71       1.0  0.44668  0.90696  0.35861  1.0000
  C   C72       1.0  0.48232  0.98100  0.36225  1.0000
  C   C73       1.0  0.48065  0.96235  0.44135  1.0000
  C   C74       1.0  0.46264  0.92517  0.43784  1.0000
  H   H41       1.0  0.46038  0.91102  0.49422  1.0000
  C   C75       1.0  0.50002  0.01820  0.35501  1.0000
  C   C76       1.0  0.55389  0.07155  0.38399  1.0000
  N   N15       1.0  0.53317  0.03624  0.38842  1.0000
  H   H42       1.0  0.57828  0.08285  0.41210  1.0000
  C   C77       1.0  0.49403  0.97930  0.52173  1.0000
  H   H43       1.0  0.42544  0.00348  0.38340  1.0000
  O   O9        1.0  0.51278  0.97175  0.56587  1.0000
  O   O10       1.0  0.47820  0.99242  0.55879  1.0000
  H   H44       1.0  0.48339  0.00203  0.61253  1.0000
  N   N16       1.0  0.43032  0.87212  0.35914  1.0000
  C   C78       1.0  0.09225  0.54002  0.35887  1.0000
  C   C79       1.0  0.01818  0.50160  0.36173  1.0000
  C   C80       1.0  0.03673  0.51838  0.44114  1.0000
  C   C81       1.0  0.07392  0.53755  0.43802  1.0000
  H   H45       1.0  0.08798  0.54930  0.49462  1.0000
  C   C82       1.0  0.98097  0.48211  0.35401  1.0000
  C   C83       1.0  0.92749  0.48220  0.38457  1.0000
  N   N17       1.0  0.96281  0.49685  0.38894  1.0000
  H   H46       1.0  0.91611  0.49499  0.41392  1.0000
  C   C84       1.0  0.01968  0.51456  0.52148  1.0000
  H   H47       1.0  0.99358  0.42096  0.38232  1.0000
  O   O11       1.0  0.02712  0.54074  0.56604  1.0000
  O   O12       1.0  0.00659  0.48552  0.55809  1.0000
  H   H48       1.0  0.99693  0.48097  0.61177  1.0000
  N   N18       1.0  0.12709  0.55851  0.35966  1.0000
