data_image0
_chemical_formula_structural       C12H6CH2C2O2C12H6CH2C2O2C12H6CH2C2O2C3HNO2NHC3HNO2NHC3HNO2NHC3HNO2NHC3HNO2NHC3HNO2NHC12H6C2H2C2O2C12H6C2H2C2O2C12H6C2H2C2O2C3HNO2NHC3HNO2NHC3HNO2NHC3HNO2NHC3HNO2NHC3HNO2NH
_chemical_formula_sum              "C129 H72 O36 N24"
_cell_length_a       34.3715
_cell_length_b       34.3715
_cell_length_c       15.0542
_cell_angle_alpha    90
_cell_angle_beta     90
_cell_angle_gamma    120

_space_group_name_H-M_alt    "P 1"
_space_group_IT_number       1

loop_
  _space_group_symop_operation_xyz
  'x, y, z'

loop_
  _atom_site_type_symbol
  _atom_site_label
  _atom_site_symmetry_multiplicity
  _atom_site_fract_x
  _atom_site_fract_y
  _atom_site_fract_z
  _atom_site_occupancy
  C   C1        1.0  0.96720  0.50963  0.27528  1.0000
  C   C2        1.0  0.96842  0.51025  0.18083  1.0000
  C   C3        1.0  0.02622  0.48615  0.18087  1.0000
  C   C4        1.0  0.02740  0.48676  0.27532  1.0000
  C   C5        1.0  0.05923  0.47807  0.31770  1.0000
  C   C6        1.0  0.08963  0.47041  0.26819  1.0000
  C   C7        1.0  0.08605  0.46777  0.17487  1.0000
  C   C8        1.0  0.05446  0.47531  0.13168  1.0000
  C   C9        1.0  0.94016  0.52104  0.13160  1.0000
  C   C10       1.0  0.90857  0.52859  0.17475  1.0000
  C   C11       1.0  0.90497  0.52596  0.26806  1.0000
  C   C12       1.0  0.93538  0.51834  0.31762  1.0000
  H   H1        1.0  0.06224  0.58102  0.27411  1.0000
  H   H2        1.0  0.93233  0.41539  0.27404  1.0000
  H   H3        1.0  0.10743  0.46191  0.13727  1.0000
  H   H4        1.0  0.05377  0.47496  0.06364  1.0000
  H   H5        1.0  0.94091  0.52146  0.06356  1.0000
  H   H6        1.0  0.88722  0.53449  0.13712  1.0000
  C   C13       1.0  0.99732  0.49819  0.12933  1.0000
  H   H7        1.0  0.01897  0.52678  0.08679  1.0000
  H   H8        1.0  0.97567  0.46959  0.08681  1.0000
  C   C14       1.0  0.86853  0.52664  0.30959  1.0000
  C   C15       1.0  0.12609  0.46979  0.30977  1.0000
  O   O1        1.0  0.11650  0.67611  0.28395  1.0000
  O   O2        1.0  0.87804  0.32020  0.28405  1.0000
  C   C16       1.0  0.48586  0.45666  0.27534  1.0000
  C   C17       1.0  0.48525  0.45724  0.18089  1.0000
  C   C18       1.0  0.50932  0.53913  0.18086  1.0000
  C   C19       1.0  0.50875  0.53974  0.27530  1.0000
  C   C20       1.0  0.51748  0.58027  0.31766  1.0000
  C   C21       1.0  0.52510  0.61831  0.26810  1.0000
  C   C22       1.0  0.52772  0.61734  0.17478  1.0000
  C   C23       1.0  0.52011  0.57818  0.13162  1.0000
  C   C24       1.0  0.47446  0.41817  0.13170  1.0000
  C   C25       1.0  0.46694  0.37905  0.17489  1.0000
  C   C26       1.0  0.46957  0.37810  0.26820  1.0000
  C   C27       1.0  0.47717  0.41614  0.31773  1.0000
  H   H9        1.0  0.41451  0.48038  0.27406  1.0000
  H   H10       1.0  0.58013  0.51608  0.27409  1.0000
  H   H11       1.0  0.53357  0.64458  0.13714  1.0000
  H   H12       1.0  0.52050  0.57784  0.06358  1.0000
  H   H13       1.0  0.47405  0.41849  0.06366  1.0000
  H   H14       1.0  0.46105  0.35180  0.13729  1.0000
  C   C28       1.0  0.49727  0.49818  0.12936  1.0000
  H   H15       1.0  0.46866  0.49121  0.08685  1.0000
  H   H16       1.0  0.52586  0.50513  0.08679  1.0000
  C   C29       1.0  0.46896  0.34104  0.30981  1.0000
  C   C30       1.0  0.52577  0.65543  0.30959  1.0000
  O   O3        1.0  0.31932  0.43946  0.28411  1.0000
  O   O4        1.0  0.67526  0.55693  0.28406  1.0000
  C   C31       1.0  0.53884  0.02828  0.27525  1.0000
  C   C32       1.0  0.53825  0.02710  0.18081  1.0000
  C   C33       1.0  0.45636  0.96926  0.18081  1.0000
  C   C34       1.0  0.45578  0.96807  0.27526  1.0000
  C   C35       1.0  0.41526  0.93624  0.31763  1.0000
  C   C36       1.0  0.37720  0.90585  0.26810  1.0000
  C   C37       1.0  0.37815  0.90944  0.17478  1.0000
  C   C38       1.0  0.41731  0.94097  0.13160  1.0000
  C   C39       1.0  0.57730  0.05539  0.13158  1.0000
  C   C40       1.0  0.61645  0.08694  0.17476  1.0000
  C   C41       1.0  0.61739  0.09054  0.26807  1.0000
  C   C42       1.0  0.57937  0.06008  0.31764  1.0000
  H   H17       1.0  0.51518  0.93324  0.27406  1.0000
  H   H18       1.0  0.47947  0.06315  0.27397  1.0000
  H   H19       1.0  0.35091  0.88806  0.13716  1.0000
  H   H20       1.0  0.41762  0.94173  0.06356  1.0000
  H   H21       1.0  0.57698  0.05463  0.06355  1.0000
  H   H22       1.0  0.64368  0.10834  0.13714  1.0000
  C   C43       1.0  0.49730  0.99818  0.12929  1.0000
  H   H23       1.0  0.50427  0.97654  0.08677  1.0000
  H   H24       1.0  0.49034  0.01981  0.08674  1.0000
  C   C44       1.0  0.65449  0.12698  0.30961  1.0000
  C   C45       1.0  0.34010  0.86941  0.30965  1.0000
  O   O5        1.0  0.55600  0.87896  0.28391  1.0000
  O   O6        1.0  0.43859  0.11745  0.28397  1.0000
  C   C46       1.0  0.20570  0.49432  0.30333  1.0000
  C   C47       1.0  0.23581  0.49502  0.23810  1.0000
  C   C48       1.0  0.27510  0.49499  0.26538  1.0000
  H   H25       1.0  0.29715  0.49649  0.21803  1.0000
  N   N1        1.0  0.22567  0.49499  0.14686  1.0000
  O   O7        1.0  0.22137  0.46073  0.10788  1.0000
  O   O8        1.0  0.25547  0.52934  0.10784  1.0000
  N   N2        1.0  0.16854  0.49615  0.27805  1.0000
  H   H26       1.0  0.17280  0.51675  0.22947  1.0000
  C   C49       1.0  0.50118  0.71048  0.30330  1.0000
  C   C50       1.0  0.50050  0.73992  0.23809  1.0000
  C   C51       1.0  0.50055  0.77923  0.26540  1.0000
  H   H27       1.0  0.49903  0.79979  0.21807  1.0000
  N   N3        1.0  0.50052  0.72981  0.14684  1.0000
  O   O9        1.0  0.53479  0.75977  0.10787  1.0000
  O   O10       1.0  0.46617  0.72529  0.10782  1.0000
  N   N4        1.0  0.49936  0.67150  0.27798  1.0000
  H   H28       1.0  0.47880  0.65519  0.22932  1.0000
  C   C52       1.0  0.28499  0.78979  0.30331  1.0000
  C   C53       1.0  0.25555  0.75966  0.23813  1.0000
  C   C54       1.0  0.21623  0.72041  0.26546  1.0000
  H   H29       1.0  0.19566  0.69833  0.21814  1.0000
  N   N5        1.0  0.26565  0.76977  0.14687  1.0000
  O   O11       1.0  0.23570  0.77409  0.10788  1.0000
  O   O12       1.0  0.27017  0.73994  0.10788  1.0000
  N   N6        1.0  0.32399  0.82694  0.27798  1.0000
  H   H30       1.0  0.34030  0.82266  0.22936  1.0000
  C   C55       1.0  0.78889  0.50211  0.30318  1.0000
  C   C56       1.0  0.75875  0.50140  0.23799  1.0000
  C   C57       1.0  0.71947  0.50140  0.26533  1.0000
  H   H31       1.0  0.69739  0.49991  0.21801  1.0000
  N   N7        1.0  0.76887  0.50144  0.14674  1.0000
  O   O13       1.0  0.77314  0.53569  0.10778  1.0000
  O   O14       1.0  0.73907  0.46708  0.10773  1.0000
  N   N8        1.0  0.82607  0.50033  0.27783  1.0000
  H   H32       1.0  0.82181  0.47974  0.22922  1.0000
  C   C58       1.0  0.49344  0.28590  0.30331  1.0000
  C   C59       1.0  0.49415  0.25650  0.23806  1.0000
  C   C60       1.0  0.49413  0.21720  0.26532  1.0000
  H   H33       1.0  0.49564  0.19664  0.21796  1.0000
  N   N9        1.0  0.49414  0.26664  0.14683  1.0000
  O   O15       1.0  0.45989  0.23668  0.10781  1.0000
  O   O16       1.0  0.52850  0.27120  0.10782  1.0000
  N   N10       1.0  0.49529  0.32491  0.27805  1.0000
  H   H34       1.0  0.51590  0.34125  0.22948  1.0000
  C   C61       1.0  0.70955  0.20661  0.30332  1.0000
  C   C62       1.0  0.73900  0.23671  0.23811  1.0000
  C   C63       1.0  0.77832  0.27597  0.26541  1.0000
  H   H35       1.0  0.79889  0.29804  0.21807  1.0000
  N   N11       1.0  0.72890  0.22657  0.14685  1.0000
  O   O17       1.0  0.75885  0.22224  0.10792  1.0000
  O   O18       1.0  0.72440  0.25639  0.10780  1.0000
  N   N12       1.0  0.67056  0.16945  0.27800  1.0000
  H   H36       1.0  0.65427  0.17371  0.22933  1.0000
  C   C64       1.0  0.96719  0.45665  0.38416  1.0000
  C   C65       1.0  0.96838  0.45722  0.47861  1.0000
  C   C66       1.0  0.02617  0.53913  0.47864  1.0000
  C   C67       1.0  0.02739  0.53972  0.38420  1.0000
  C   C68       1.0  0.05443  0.57818  0.52788  1.0000
  C   C69       1.0  0.08601  0.61733  0.48473  1.0000
  C   C70       1.0  0.08961  0.61829  0.39142  1.0000
  C   C71       1.0  0.05923  0.58025  0.34186  1.0000
  C   C72       1.0  0.93540  0.41611  0.34176  1.0000
  C   C73       1.0  0.90495  0.37809  0.39130  1.0000
  C   C74       1.0  0.90853  0.37903  0.48461  1.0000
  C   C75       1.0  0.94013  0.41815  0.52781  1.0000
  H   H37       1.0  0.88713  0.35180  0.52222  1.0000
  H   H38       1.0  0.94082  0.41849  0.59585  1.0000
  H   H39       1.0  0.05366  0.57785  0.59592  1.0000
  H   H40       1.0  0.10734  0.64458  0.52236  1.0000
  H   H41       1.0  0.06223  0.48031  0.38545  1.0000
  H   H42       1.0  0.93233  0.51605  0.38537  1.0000
  C   C76       1.0  0.99730  0.49819  0.32974  1.0000
  C   C77       1.0  0.99726  0.49817  0.53014  1.0000
  H   H43       1.0  0.97560  0.50511  0.57266  1.0000
  H   H44       1.0  0.01891  0.49123  0.57270  1.0000
  C   C78       1.0  0.12604  0.65542  0.34989  1.0000
  C   C79       1.0  0.86848  0.34101  0.34973  1.0000
  O   O19       1.0  0.11653  0.43942  0.37545  1.0000
  O   O20       1.0  0.87807  0.55687  0.37555  1.0000
  C   C80       1.0  0.53884  0.50963  0.38420  1.0000
  C   C81       1.0  0.53825  0.51024  0.47865  1.0000
  C   C82       1.0  0.45636  0.48618  0.47864  1.0000
  C   C83       1.0  0.45577  0.48678  0.38419  1.0000
  C   C84       1.0  0.41730  0.47543  0.52784  1.0000
  C   C85       1.0  0.37817  0.46788  0.48464  1.0000
  C   C86       1.0  0.37722  0.47049  0.39132  1.0000
  C   C87       1.0  0.41524  0.47805  0.34179  1.0000
  C   C88       1.0  0.57935  0.51831  0.34184  1.0000
  C   C89       1.0  0.61740  0.52595  0.39139  1.0000
  C   C90       1.0  0.61644  0.52856  0.48470  1.0000
  C   C91       1.0  0.57729  0.52098  0.52788  1.0000
  H   H45       1.0  0.64369  0.53445  0.52232  1.0000
  H   H46       1.0  0.57697  0.52142  0.59591  1.0000
  H   H47       1.0  0.41762  0.47499  0.59587  1.0000
  H   H48       1.0  0.35092  0.46200  0.52224  1.0000
  H   H49       1.0  0.51520  0.58102  0.38540  1.0000
  H   H50       1.0  0.47946  0.41540  0.38547  1.0000
  C   C92       1.0  0.49730  0.49820  0.32976  1.0000
  C   C93       1.0  0.49730  0.49821  0.53016  1.0000
  H   H51       1.0  0.49033  0.46960  0.57270  1.0000
  H   H52       1.0  0.50426  0.52681  0.57270  1.0000
  C   C94       1.0  0.34015  0.46987  0.34972  1.0000
  C   C95       1.0  0.65450  0.52660  0.34983  1.0000
  O   O21       1.0  0.55596  0.67610  0.37561  1.0000
  O   O22       1.0  0.43855  0.32020  0.37541  1.0000
  C   C96       1.0  0.48586  0.02828  0.38411  1.0000
  C   C97       1.0  0.48524  0.02708  0.47856  1.0000
  C   C98       1.0  0.50935  0.96929  0.47860  1.0000
  C   C99       1.0  0.50875  0.96809  0.38415  1.0000
  C   C100      1.0  0.52014  0.94103  0.52784  1.0000
  C   C101      1.0  0.52773  0.90947  0.48469  1.0000
  C   C102      1.0  0.52508  0.90586  0.39138  1.0000
  C   C103      1.0  0.51747  0.93627  0.34180  1.0000
  C   C104      1.0  0.47713  0.06008  0.34170  1.0000
  C   C105      1.0  0.46957  0.09054  0.39124  1.0000
  C   C106      1.0  0.46694  0.08697  0.48455  1.0000
  C   C107      1.0  0.47443  0.05535  0.52775  1.0000
  H   H53       1.0  0.46110  0.10837  0.52216  1.0000
  H   H54       1.0  0.47408  0.05466  0.59579  1.0000
  H   H55       1.0  0.52054  0.94178  0.59587  1.0000
  H   H56       1.0  0.53359  0.88809  0.52233  1.0000
  H   H57       1.0  0.41449  0.93323  0.38538  1.0000
  H   H58       1.0  0.58010  0.06315  0.38537  1.0000
  C   C108      1.0  0.49731  0.99818  0.32969  1.0000
  C   C109      1.0  0.49729  0.99820  0.53010  1.0000
  H   H59       1.0  0.52589  0.01985  0.57262  1.0000
  H   H60       1.0  0.46870  0.97655  0.57264  1.0000
  C   C110      1.0  0.52576  0.86942  0.34985  1.0000
  C   C111      1.0  0.46896  0.12700  0.34966  1.0000
  O   O23       1.0  0.31934  0.87898  0.37543  1.0000
  O   O24       1.0  0.67517  0.11746  0.37563  1.0000
  C   C112      1.0  0.28501  0.49434  0.35617  1.0000
  C   C113      1.0  0.25560  0.49503  0.42140  1.0000
  C   C114      1.0  0.21627  0.49497  0.39413  1.0000
  H   H61       1.0  0.19572  0.49650  0.44147  1.0000
  N   N13       1.0  0.26573  0.49503  0.51264  1.0000
  O   O25       1.0  0.23579  0.46077  0.55165  1.0000
  O   O26       1.0  0.27026  0.52938  0.55165  1.0000
  N   N14       1.0  0.32403  0.49621  0.38144  1.0000
  H   H62       1.0  0.34036  0.51682  0.43001  1.0000
  C   C115      1.0  0.50119  0.78978  0.35620  1.0000
  C   C116      1.0  0.50048  0.75965  0.42140  1.0000
  C   C117      1.0  0.50052  0.72038  0.39409  1.0000
  H   H63       1.0  0.49900  0.69831  0.44142  1.0000
  N   N15       1.0  0.50050  0.76977  0.51265  1.0000
  O   O27       1.0  0.53476  0.77408  0.55165  1.0000
  O   O28       1.0  0.46614  0.73996  0.55165  1.0000
  N   N16       1.0  0.49937  0.82695  0.38150  1.0000
  H   H64       1.0  0.47880  0.82269  0.43014  1.0000
  C   C118      1.0  0.20568  0.71052  0.35626  1.0000
  C   C119      1.0  0.23582  0.73995  0.42146  1.0000
  C   C120      1.0  0.27510  0.77924  0.39411  1.0000
  H   H65       1.0  0.29718  0.79981  0.44143  1.0000
  N   N17       1.0  0.22571  0.72986  0.51271  1.0000
  O   O29       1.0  0.22144  0.75984  0.55169  1.0000
  O   O30       1.0  0.25552  0.72531  0.55170  1.0000
  N   N18       1.0  0.16850  0.67156  0.38163  1.0000
  H   H66       1.0  0.17277  0.65523  0.43023  1.0000
  C   C121      1.0  0.70958  0.50207  0.35614  1.0000
  C   C122      1.0  0.73902  0.50138  0.42132  1.0000
  C   C123      1.0  0.77833  0.50143  0.39399  1.0000
  H   H67       1.0  0.79891  0.49995  0.44131  1.0000
  N   N19       1.0  0.72892  0.50140  0.51257  1.0000
  O   O31       1.0  0.75887  0.53567  0.55155  1.0000
  O   O32       1.0  0.72440  0.46705  0.55158  1.0000
  N   N20       1.0  0.67058  0.50022  0.38145  1.0000
  H   H68       1.0  0.65427  0.47964  0.43008  1.0000
  C   C124      1.0  0.49346  0.20661  0.35611  1.0000
  C   C125      1.0  0.49414  0.23670  0.42135  1.0000
  C   C126      1.0  0.49406  0.27596  0.39409  1.0000
  H   H69       1.0  0.49558  0.29803  0.44146  1.0000
  N   N21       1.0  0.49412  0.22655  0.51258  1.0000
  O   O33       1.0  0.45985  0.22221  0.55158  1.0000
  O   O34       1.0  0.52846  0.25637  0.55162  1.0000
  N   N22       1.0  0.49534  0.16946  0.38135  1.0000
  H   H70       1.0  0.51592  0.17373  0.42995  1.0000
  C   C127      1.0  0.78886  0.28590  0.35620  1.0000
  C   C128      1.0  0.75872  0.25650  0.42142  1.0000
  C   C129      1.0  0.71944  0.21719  0.39411  1.0000
  H   H71       1.0  0.69735  0.19664  0.44144  1.0000
  N   N23       1.0  0.76883  0.26662  0.51266  1.0000
  O   O35       1.0  0.77311  0.23666  0.55169  1.0000
  O   O36       1.0  0.73902  0.27118  0.55163  1.0000
  N   N24       1.0  0.82603  0.32488  0.38150  1.0000
  H   H72       1.0  0.82177  0.34124  0.43005  1.0000
