data_image0
_chemical_formula_structural       C16H16CNC2O2CH3CHCNC2O2CH3CHC3NC3NC5NC5NC36H26N5C2HCHNC2HCH
_chemical_formula_sum              "C84 H54 N12 O4"
_cell_length_a       34.2543
_cell_length_b       34.2524
_cell_length_c       14.6983
_cell_angle_alpha    90
_cell_angle_beta     90
_cell_angle_gamma    89.934

_space_group_name_H-M_alt    "P 1"
_space_group_IT_number       1

loop_
  _space_group_symop_operation_xyz
  'x, y, z'

loop_
  _atom_site_type_symbol
  _atom_site_label
  _atom_site_symmetry_multiplicity
  _atom_site_fract_x
  _atom_site_fract_y
  _atom_site_fract_z
  _atom_site_occupancy
  C   C1        1.0  0.17902  0.01051  0.28905  1.0000
  C   C2        1.0  0.22017  0.01073  0.28762  1.0000
  C   C3        1.0  0.34664  0.03315  0.30071  1.0000
  C   C4        1.0  0.30548  0.03316  0.30320  1.0000
  C   C5        1.0  0.00927  0.17552  0.29309  1.0000
  C   C6        1.0  0.00921  0.21667  0.29322  1.0000
  C   C7        1.0  0.98718  0.30166  0.32141  1.0000
  C   C8        1.0  0.98684  0.34281  0.32114  1.0000
  C   C9        1.0  0.80700  0.00567  0.29371  1.0000
  C   C10       1.0  0.84815  0.00530  0.29345  1.0000
  C   C11       1.0  0.72199  0.98417  0.32237  1.0000
  C   C12       1.0  0.68085  0.98402  0.32233  1.0000
  C   C13       1.0  0.01451  0.84477  0.28903  1.0000
  C   C14       1.0  0.01466  0.80362  0.28745  1.0000
  C   C15       1.0  0.03615  0.67692  0.30001  1.0000
  C   C16       1.0  0.03648  0.71807  0.30271  1.0000
  H   H1        1.0  0.05278  0.66285  0.25227  1.0000
  H   H2        1.0  0.05396  0.73247  0.25740  1.0000
  H   H3        1.0  0.01461  0.79007  0.22543  1.0000
  H   H4        1.0  0.01497  0.85973  0.22873  1.0000
  H   H5        1.0  0.86257  0.00143  0.23311  1.0000
  H   H6        1.0  0.79284  0.00254  0.23286  1.0000
  H   H7        1.0  0.00559  0.16102  0.23279  1.0000
  H   H8        1.0  0.00596  0.23077  0.23231  1.0000
  H   H9        1.0  0.96640  0.35672  0.28224  1.0000
  H   H10       1.0  0.96666  0.28738  0.28332  1.0000
  H   H11       1.0  0.29094  0.05050  0.25774  1.0000
  H   H12       1.0  0.36058  0.04985  0.25296  1.0000
  H   H13       1.0  0.23376  0.01077  0.22566  1.0000
  H   H14       1.0  0.16409  0.01105  0.22871  1.0000
  H   H15       1.0  0.73617  0.96354  0.28434  1.0000
  H   H16       1.0  0.66685  0.96357  0.28371  1.0000
  C   C17       1.0  0.00385  0.47017  0.34881  1.0000
  N   N1        1.0  0.00394  0.53756  0.30707  1.0000
  C   C18       1.0  0.00065  0.49949  0.28042  1.0000
  C   C19       1.0  0.99449  0.49119  0.18905  1.0000
  O   O1        1.0  0.98005  0.51705  0.14218  1.0000
  O   O2        1.0  0.02203  0.46956  0.14838  1.0000
  C   C20       1.0  0.00722  0.44149  0.08417  1.0000
  H   H17       1.0  0.03184  0.42473  0.05792  1.0000
  H   H18       1.0  0.99291  0.45585  0.02670  1.0000
  H   H19       1.0  0.98684  0.42113  0.11601  1.0000
  C   C21       1.0  0.99752  0.43064  0.33315  1.0000
  H   H20       1.0  0.97833  0.42335  0.28561  1.0000
  C   C22       1.0  0.55358  0.00180  0.34945  1.0000
  N   N2        1.0  0.48616  0.00197  0.30782  1.0000
  C   C23       1.0  0.52423  0.99880  0.28111  1.0000
  C   C24       1.0  0.53251  0.99287  0.18965  1.0000
  O   O3        1.0  0.50712  0.97756  0.14312  1.0000
  O   O4        1.0  0.55217  0.02211  0.15009  1.0000
  C   C25       1.0  0.58105  0.00956  0.08514  1.0000
  H   H21       1.0  0.59598  0.03541  0.05944  1.0000
  H   H22       1.0  0.56759  0.99462  0.02740  1.0000
  H   H23       1.0  0.60286  0.99046  0.11617  1.0000
  C   C26       1.0  0.59313  0.99560  0.33342  1.0000
  H   H24       1.0  0.60044  0.97702  0.28455  1.0000
  C   C27       1.0  0.08633  0.90842  0.37343  1.0000
  C   C28       1.0  0.11492  0.93684  0.37344  1.0000
  C   C29       1.0  0.09675  0.97339  0.37412  1.0000
  N   N3        1.0  0.05787  0.96564  0.37465  1.0000
  C   C30       1.0  0.04989  0.92680  0.37399  1.0000
  C   C31       1.0  0.01325  0.90707  0.37390  1.0000
  C   C32       1.0  0.97632  0.92611  0.37436  1.0000
  N   N4        1.0  0.96878  0.96492  0.37427  1.0000
  C   C33       1.0  0.93001  0.97269  0.37469  1.0000
  C   C34       1.0  0.91147  0.93638  0.37536  1.0000
  C   C35       1.0  0.93993  0.90777  0.37489  1.0000
  C   C36       1.0  0.91119  0.00975  0.37490  1.0000
  C   C37       1.0  0.93116  0.04626  0.37486  1.0000
  N   N5        1.0  0.97004  0.05401  0.37472  1.0000
  C   C38       1.0  0.97803  0.09284  0.37467  1.0000
  C   C39       1.0  0.94159  0.11123  0.37489  1.0000
  C   C40       1.0  0.91300  0.08282  0.37459  1.0000
  C   C41       1.0  0.01466  0.11258  0.37475  1.0000
  C   C42       1.0  0.05159  0.09352  0.37463  1.0000
  N   N6        1.0  0.05911  0.05472  0.37491  1.0000
  C   C43       1.0  0.09786  0.04695  0.37410  1.0000
  C   C44       1.0  0.11643  0.08323  0.37325  1.0000
  C   C45       1.0  0.08799  0.11185  0.37339  1.0000
  C   C46       1.0  0.11669  0.00990  0.37384  1.0000
  C   C47       1.0  0.15849  0.00949  0.37233  1.0000
  C   C48       1.0  0.24243  0.01002  0.36905  1.0000
  C   C49       1.0  0.22137  0.00891  0.45217  1.0000
  C   C50       1.0  0.18021  0.00869  0.45396  1.0000
  C   C51       1.0  0.28450  0.01043  0.36737  1.0000
  C   C52       1.0  0.30686  0.98781  0.42925  1.0000
  C   C53       1.0  0.34803  0.98799  0.42732  1.0000
  C   C54       1.0  0.36858  0.01100  0.36343  1.0000
  C   C55       1.0  0.01447  0.15441  0.37475  1.0000
  C   C56       1.0  0.01453  0.23828  0.37461  1.0000
  C   C57       1.0  0.01986  0.21673  0.45607  1.0000
  C   C58       1.0  0.01976  0.17557  0.45631  1.0000
  C   C59       1.0  0.01433  0.28028  0.37454  1.0000
  C   C60       1.0  0.01378  0.36443  0.37398  1.0000
  C   C61       1.0  0.04079  0.34331  0.42732  1.0000
  C   C62       1.0  0.04108  0.30213  0.42766  1.0000
  C   C63       1.0  0.86936  0.01025  0.37504  1.0000
  C   C64       1.0  0.84829  0.01578  0.45667  1.0000
  C   C65       1.0  0.80714  0.01634  0.45656  1.0000
  C   C66       1.0  0.78549  0.01119  0.37519  1.0000
  C   C67       1.0  0.74349  0.01125  0.37529  1.0000
  C   C68       1.0  0.65934  0.01111  0.37515  1.0000
  C   C69       1.0  0.68058  0.03804  0.42835  1.0000
  C   C70       1.0  0.72177  0.03812  0.42847  1.0000
  C   C71       1.0  0.01348  0.86526  0.37236  1.0000
  C   C72       1.0  0.01258  0.84348  0.45392  1.0000
  C   C73       1.0  0.01379  0.78131  0.36878  1.0000
  C   C74       1.0  0.01273  0.80232  0.45198  1.0000
  C   C75       1.0  0.01389  0.73923  0.36693  1.0000
  C   C76       1.0  0.99104  0.71703  0.42859  1.0000
  C   C77       1.0  0.99090  0.67587  0.42647  1.0000
  C   C78       1.0  0.01379  0.65514  0.36255  1.0000
  H   H25       1.0  0.97328  0.66109  0.47082  1.0000
  H   H26       1.0  0.97325  0.73070  0.47458  1.0000
  H   H27       1.0  0.01280  0.78778  0.51277  1.0000
  H   H28       1.0  0.01195  0.85749  0.51543  1.0000
  H   H29       1.0  0.09180  0.87907  0.37284  1.0000
  H   H30       1.0  0.14424  0.93121  0.37280  1.0000
  H   H31       1.0  0.03808  0.98554  0.37512  1.0000
  H   H32       1.0  0.98982  0.03410  0.37476  1.0000
  H   H33       1.0  0.93448  0.87844  0.37528  1.0000
  H   H34       1.0  0.88212  0.93109  0.37619  1.0000
  H   H35       1.0  0.86283  0.01930  0.51696  1.0000
  H   H36       1.0  0.79306  0.01970  0.51746  1.0000
  H   H37       1.0  0.88370  0.08850  0.37439  1.0000
  H   H38       1.0  0.93610  0.14057  0.37510  1.0000
  H   H39       1.0  0.14579  0.08851  0.37223  1.0000
  H   H40       1.0  0.09347  0.14117  0.37232  1.0000
  H   H41       1.0  0.02349  0.16109  0.51664  1.0000
  H   H42       1.0  0.02312  0.23086  0.51692  1.0000
  H   H43       1.0  0.06173  0.28820  0.46613  1.0000
  H   H44       1.0  0.06080  0.35789  0.46634  1.0000
  H   H45       1.0  0.16617  0.00823  0.51543  1.0000
  H   H46       1.0  0.23587  0.00917  0.51302  1.0000
  H   H47       1.0  0.36294  0.97053  0.47186  1.0000
  H   H48       1.0  0.29334  0.96997  0.47529  1.0000
  H   H49       1.0  0.73579  0.05871  0.46686  1.0000
  H   H50       1.0  0.66609  0.05812  0.46743  1.0000
  N   N7        1.0  0.40749  0.01091  0.35576  1.0000
  N   N8        1.0  0.01346  0.61623  0.35480  1.0000
  N   N9        1.0  0.62027  0.01280  0.37899  1.0000
  N   N10       1.0  0.01534  0.40351  0.37756  1.0000
  N   N11       1.0  0.01016  0.48230  0.43578  1.0000
  C   C79       1.0  0.01376  0.52032  0.46058  1.0000
  C   C80       1.0  0.01023  0.54979  0.39389  1.0000
  H   H51       1.0  0.01809  0.52696  0.52763  1.0000
  C   C81       1.0  0.01118  0.58928  0.41574  1.0000
  H   H52       1.0  0.00997  0.59694  0.48100  1.0000
  N   N12       1.0  0.54145  0.00785  0.43655  1.0000
  C   C82       1.0  0.50343  0.01134  0.46146  1.0000
  C   C83       1.0  0.47394  0.00801  0.39477  1.0000
  H   H53       1.0  0.49680  0.01546  0.52860  1.0000
  C   C84       1.0  0.43446  0.00877  0.41669  1.0000
  H   H54       1.0  0.42681  0.00746  0.48195  1.0000
