data_image0
_chemical_formula_structural       C6H4C6H4C6H4C24H15C24H15C2H2C4H2C2H2C4H2C2H2C4H2
_chemical_formula_sum              "C84 H54"
_cell_length_a       37.6984
_cell_length_b       37.6983
_cell_length_c       14.9505
_cell_angle_alpha    90
_cell_angle_beta     90
_cell_angle_gamma    120

_space_group_name_H-M_alt    "P 1"
_space_group_IT_number       1

loop_
  _space_group_symop_operation_xyz
  'x, y, z'

loop_
  _atom_site_type_symbol
  _atom_site_label
  _atom_site_symmetry_multiplicity
  _atom_site_fract_x
  _atom_site_fract_y
  _atom_site_fract_z
  _atom_site_occupancy
  C   C1        1.0  0.44689  0.55724  0.33647  1.0000
  C   C2        1.0  0.45792  0.54621  0.25568  1.0000
  C   C3        1.0  0.47948  0.52465  0.25617  1.0000
  C   C4        1.0  0.49126  0.51288  0.33660  1.0000
  C   C5        1.0  0.52551  0.47863  0.25633  1.0000
  C   C6        1.0  0.54707  0.45707  0.25596  1.0000
  H   H1        1.0  0.51882  0.48533  0.19494  1.0000
  H   H2        1.0  0.55469  0.44945  0.19607  1.0000
  H   H3        1.0  0.45032  0.55381  0.19574  1.0000
  H   H4        1.0  0.48619  0.51794  0.19483  1.0000
  C   C7        1.0  0.44689  0.89048  0.33647  1.0000
  C   C8        1.0  0.45792  0.91253  0.25567  1.0000
  C   C9        1.0  0.47949  0.95566  0.25617  1.0000
  C   C10       1.0  0.49126  0.97921  0.33660  1.0000
  C   C11       1.0  0.52550  0.04770  0.25633  1.0000
  C   C12       1.0  0.54707  0.09083  0.25596  1.0000
  H   H5        1.0  0.51881  0.03432  0.19494  1.0000
  H   H6        1.0  0.55468  0.10606  0.19607  1.0000
  H   H7        1.0  0.45033  0.89733  0.19573  1.0000
  H   H8        1.0  0.48620  0.96908  0.19483  1.0000
  C   C13       1.0  0.11366  0.55724  0.33647  1.0000
  C   C14       1.0  0.09161  0.54622  0.25567  1.0000
  C   C15       1.0  0.04848  0.52466  0.25617  1.0000
  C   C16       1.0  0.02493  0.51288  0.33660  1.0000
  C   C17       1.0  0.95644  0.47863  0.25633  1.0000
  C   C18       1.0  0.91331  0.45707  0.25596  1.0000
  H   H9        1.0  0.96982  0.48532  0.19494  1.0000
  H   H10       1.0  0.89807  0.44945  0.19607  1.0000
  H   H11       1.0  0.10680  0.55382  0.19573  1.0000
  H   H12       1.0  0.03506  0.51795  0.19483  1.0000
  C   C19       1.0  0.29108  0.64595  0.33666  1.0000
  C   C20       1.0  0.31470  0.62610  0.33666  1.0000
  C   C21       1.0  0.35819  0.64595  0.33666  1.0000
  C   C22       1.0  0.37804  0.68943  0.33666  1.0000
  C   C23       1.0  0.35819  0.71306  0.33666  1.0000
  C   C24       1.0  0.31470  0.68943  0.33666  1.0000
  C   C25       1.0  0.38076  0.62338  0.33660  1.0000
  C   C26       1.0  0.36082  0.57965  0.33657  1.0000
  C   C27       1.0  0.38219  0.55790  0.33648  1.0000
  C   C28       1.0  0.42524  0.57890  0.33643  1.0000
  C   C29       1.0  0.44623  0.62194  0.33649  1.0000
  C   C30       1.0  0.42449  0.64332  0.33657  1.0000
  C   C31       1.0  0.24593  0.62338  0.33660  1.0000
  C   C32       1.0  0.22215  0.57965  0.33657  1.0000
  C   C33       1.0  0.17902  0.55790  0.33649  1.0000
  C   C34       1.0  0.15698  0.57890  0.33643  1.0000
  C   C35       1.0  0.17902  0.62194  0.33648  1.0000
  C   C36       1.0  0.22215  0.64332  0.33657  1.0000
  C   C37       1.0  0.38076  0.75821  0.33660  1.0000
  C   C38       1.0  0.36082  0.78199  0.33657  1.0000
  C   C39       1.0  0.38220  0.82512  0.33649  1.0000
  C   C40       1.0  0.42524  0.84716  0.33643  1.0000
  C   C41       1.0  0.44623  0.82512  0.33648  1.0000
  C   C42       1.0  0.42449  0.78199  0.33657  1.0000
  H   H13       1.0  0.16380  0.52653  0.33649  1.0000
  H   H14       1.0  0.23524  0.56176  0.33662  1.0000
  H   H15       1.0  0.16380  0.63810  0.33648  1.0000
  H   H16       1.0  0.23524  0.67431  0.33662  1.0000
  H   H17       1.0  0.32983  0.76890  0.33662  1.0000
  H   H18       1.0  0.36604  0.84034  0.33649  1.0000
  H   H19       1.0  0.44237  0.76890  0.33662  1.0000
  H   H20       1.0  0.47761  0.84034  0.33648  1.0000
  H   H21       1.0  0.44237  0.67431  0.33662  1.0000
  H   H22       1.0  0.47761  0.63810  0.33649  1.0000
  H   H23       1.0  0.36604  0.52653  0.33648  1.0000
  H   H24       1.0  0.32983  0.56176  0.33662  1.0000
  H   H25       1.0  0.29936  0.59540  0.33665  1.0000
  H   H26       1.0  0.29936  0.70478  0.33665  1.0000
  H   H27       1.0  0.40873  0.70478  0.33665  1.0000
  C   C43       1.0  0.71389  0.35736  0.33663  1.0000
  C   C44       1.0  0.69026  0.37721  0.33663  1.0000
  C   C45       1.0  0.64678  0.35736  0.33663  1.0000
  C   C46       1.0  0.62693  0.31388  0.33663  1.0000
  C   C47       1.0  0.64678  0.29025  0.33663  1.0000
  C   C48       1.0  0.69026  0.31388  0.33663  1.0000
  C   C49       1.0  0.62421  0.37993  0.33668  1.0000
  C   C50       1.0  0.64415  0.42366  0.33672  1.0000
  C   C51       1.0  0.62277  0.44541  0.33680  1.0000
  C   C52       1.0  0.57973  0.42441  0.33686  1.0000
  C   C53       1.0  0.55873  0.38137  0.33680  1.0000
  C   C54       1.0  0.58048  0.35999  0.33672  1.0000
  C   C55       1.0  0.75904  0.37993  0.33668  1.0000
  C   C56       1.0  0.78282  0.42366  0.33672  1.0000
  C   C57       1.0  0.82595  0.44541  0.33680  1.0000
  C   C58       1.0  0.84799  0.42441  0.33686  1.0000
  C   C59       1.0  0.82594  0.38137  0.33680  1.0000
  C   C60       1.0  0.78282  0.35999  0.33672  1.0000
  C   C61       1.0  0.62421  0.24510  0.33668  1.0000
  C   C62       1.0  0.64415  0.22132  0.33672  1.0000
  C   C63       1.0  0.62277  0.17819  0.33680  1.0000
  C   C64       1.0  0.57973  0.15615  0.33686  1.0000
  C   C65       1.0  0.55873  0.17819  0.33680  1.0000
  C   C66       1.0  0.58048  0.22132  0.33672  1.0000
  H   H28       1.0  0.84116  0.47678  0.33680  1.0000
  H   H29       1.0  0.76972  0.44155  0.33667  1.0000
  H   H30       1.0  0.84116  0.36521  0.33680  1.0000
  H   H31       1.0  0.76972  0.32900  0.33667  1.0000
  H   H32       1.0  0.67513  0.23442  0.33667  1.0000
  H   H33       1.0  0.63892  0.16297  0.33680  1.0000
  H   H34       1.0  0.56259  0.23442  0.33667  1.0000
  H   H35       1.0  0.52736  0.16298  0.33680  1.0000
  H   H36       1.0  0.56259  0.32901  0.33667  1.0000
  H   H37       1.0  0.52736  0.36521  0.33680  1.0000
  H   H38       1.0  0.63893  0.47678  0.33680  1.0000
  H   H39       1.0  0.67513  0.44155  0.33667  1.0000
  H   H40       1.0  0.70561  0.40791  0.33664  1.0000
  H   H41       1.0  0.70561  0.29853  0.33664  1.0000
  H   H42       1.0  0.59623  0.29853  0.33664  1.0000
  C   C67       1.0  0.47946  0.52468  0.41696  1.0000
  C   C68       1.0  0.45790  0.54624  0.41733  1.0000
  H   H43       1.0  0.48616  0.51800  0.47835  1.0000
  H   H44       1.0  0.45028  0.55387  0.47722  1.0000
  C   C69       1.0  0.51371  0.49044  0.33668  1.0000
  C   C70       1.0  0.55807  0.44606  0.33682  1.0000
  C   C71       1.0  0.54704  0.45709  0.41762  1.0000
  C   C72       1.0  0.52548  0.47866  0.41712  1.0000
  H   H45       1.0  0.55464  0.44949  0.47756  1.0000
  H   H46       1.0  0.51877  0.48536  0.47846  1.0000
  C   C73       1.0  0.47946  0.95561  0.41696  1.0000
  C   C74       1.0  0.45789  0.91248  0.41733  1.0000
  H   H47       1.0  0.48614  0.96899  0.47835  1.0000
  H   H48       1.0  0.45027  0.89725  0.47722  1.0000
  C   C75       1.0  0.51370  0.02410  0.33668  1.0000
  C   C76       1.0  0.55807  0.11283  0.33682  1.0000
  C   C77       1.0  0.54704  0.09078  0.41762  1.0000
  C   C78       1.0  0.52548  0.04765  0.41712  1.0000
  H   H49       1.0  0.55465  0.10598  0.47756  1.0000
  H   H50       1.0  0.51877  0.03423  0.47846  1.0000
  C   C79       1.0  0.04853  0.52467  0.41696  1.0000
  C   C80       1.0  0.09166  0.54624  0.41733  1.0000
  H   H51       1.0  0.03515  0.51798  0.47835  1.0000
  H   H52       1.0  0.10689  0.55386  0.47722  1.0000
  C   C81       1.0  0.98004  0.49043  0.33668  1.0000
  C   C82       1.0  0.89130  0.44606  0.33682  1.0000
  C   C83       1.0  0.91336  0.45709  0.41762  1.0000
  C   C84       1.0  0.95649  0.47866  0.41712  1.0000
  H   H53       1.0  0.89816  0.44950  0.47756  1.0000
  H   H54       1.0  0.96991  0.48537  0.47846  1.0000
