data_image0
_chemical_formula_structural       C2HCHC2H2C2H2CHCNCNCNC18H12CNCNCNC18H12C4HNH2C4HNH2C2NH2
_chemical_formula_sum              "C60 H39 N9"
_cell_length_a       29.462
_cell_length_b       29.4621
_cell_length_c       14.9205
_cell_angle_alpha    90
_cell_angle_beta     90
_cell_angle_gamma    120

_space_group_name_H-M_alt    "P 1"
_space_group_IT_number       1

loop_
  _space_group_symop_operation_xyz
  'x, y, z'

loop_
  _atom_site_type_symbol
  _atom_site_label
  _atom_site_symmetry_multiplicity
  _atom_site_fract_x
  _atom_site_fract_y
  _atom_site_fract_z
  _atom_site_occupancy
  C   C1        1.0  0.03103  0.51618  0.26043  1.0000
  C   C2        1.0  0.03238  0.51686  0.42336  1.0000
  H   H1        1.0  0.04998  0.52566  0.19996  1.0000
  C   C3        1.0  0.05971  0.53052  0.34112  1.0000
  H   H2        1.0  0.05333  0.52733  0.48195  1.0000
  C   C4        1.0  0.51801  0.48865  0.26206  1.0000
  C   C5        1.0  0.49048  0.51618  0.26043  1.0000
  H   H3        1.0  0.52794  0.47872  0.20241  1.0000
  H   H4        1.0  0.48101  0.52566  0.19996  1.0000
  C   C6        1.0  0.51801  0.03070  0.26206  1.0000
  C   C7        1.0  0.49048  0.97563  0.26043  1.0000
  H   H5        1.0  0.52795  0.05056  0.20241  1.0000
  H   H6        1.0  0.48100  0.95668  0.19996  1.0000
  C   C8        1.0  0.97596  0.48865  0.26206  1.0000
  H   H7        1.0  0.95610  0.47872  0.20241  1.0000
  C   C9        1.0  0.36440  0.72347  0.33825  1.0000
  N   N1        1.0  0.38978  0.69556  0.33827  1.0000
  C   C10       1.0  0.36440  0.64226  0.33825  1.0000
  N   N2        1.0  0.31111  0.61688  0.33828  1.0000
  C   C11       1.0  0.28319  0.64226  0.33825  1.0000
  N   N3        1.0  0.31111  0.69556  0.33827  1.0000
  C   C12       1.0  0.39239  0.61428  0.33851  1.0000
  C   C13       1.0  0.44797  0.64101  0.33878  1.0000
  C   C14       1.0  0.47563  0.61350  0.33942  1.0000
  C   C15       1.0  0.44843  0.55823  0.33970  1.0000
  C   C16       1.0  0.39316  0.53103  0.33942  1.0000
  C   C17       1.0  0.36566  0.55869  0.33878  1.0000
  C   C18       1.0  0.39239  0.77945  0.33851  1.0000
  C   C19       1.0  0.44798  0.80830  0.33878  1.0000
  C   C20       1.0  0.47563  0.86347  0.33942  1.0000
  C   C21       1.0  0.44843  0.89153  0.33970  1.0000
  C   C22       1.0  0.39316  0.86346  0.33942  1.0000
  C   C23       1.0  0.36566  0.80830  0.33878  1.0000
  C   C24       1.0  0.22722  0.61428  0.33851  1.0000
  C   C25       1.0  0.19836  0.64101  0.33878  1.0000
  C   C26       1.0  0.14320  0.61350  0.33942  1.0000
  C   C27       1.0  0.11513  0.55823  0.33970  1.0000
  C   C28       1.0  0.14320  0.53103  0.33942  1.0000
  C   C29       1.0  0.19836  0.55869  0.33878  1.0000
  H   H8        1.0  0.51575  0.88296  0.33982  1.0000
  H   H9        1.0  0.46925  0.78952  0.33869  1.0000
  H   H10       1.0  0.37254  0.88296  0.33982  1.0000
  H   H11       1.0  0.32560  0.78952  0.33869  1.0000
  H   H12       1.0  0.21714  0.68107  0.33869  1.0000
  H   H13       1.0  0.12370  0.63412  0.33982  1.0000
  H   H14       1.0  0.21714  0.53741  0.33869  1.0000
  H   H15       1.0  0.12370  0.49091  0.33982  1.0000
  H   H16       1.0  0.32560  0.53741  0.33869  1.0000
  H   H17       1.0  0.37254  0.49091  0.33982  1.0000
  H   H18       1.0  0.51575  0.63412  0.33982  1.0000
  H   H19       1.0  0.46925  0.68107  0.33869  1.0000
  C   C30       1.0  0.64359  0.28185  0.33786  1.0000
  N   N4        1.0  0.61821  0.30977  0.33793  1.0000
  C   C31       1.0  0.64359  0.36307  0.33787  1.0000
  N   N5        1.0  0.69689  0.38845  0.33793  1.0000
  C   C32       1.0  0.72481  0.36307  0.33787  1.0000
  N   N6        1.0  0.69689  0.30977  0.33793  1.0000
  C   C33       1.0  0.61560  0.39107  0.33848  1.0000
  C   C34       1.0  0.56001  0.36434  0.33906  1.0000
  C   C35       1.0  0.53235  0.39184  0.34052  1.0000
  C   C36       1.0  0.55954  0.44711  0.34135  1.0000
  C   C37       1.0  0.61482  0.47431  0.34051  1.0000
  C   C38       1.0  0.64232  0.44665  0.33906  1.0000
  C   C39       1.0  0.61560  0.22586  0.33848  1.0000
  C   C40       1.0  0.56001  0.19700  0.33907  1.0000
  C   C41       1.0  0.53235  0.14184  0.34052  1.0000
  C   C42       1.0  0.55954  0.11376  0.34134  1.0000
  C   C43       1.0  0.61482  0.14184  0.34052  1.0000
  C   C44       1.0  0.64232  0.19700  0.33906  1.0000
  C   C45       1.0  0.78080  0.39107  0.33848  1.0000
  C   C46       1.0  0.80966  0.36434  0.33906  1.0000
  C   C47       1.0  0.86482  0.39184  0.34052  1.0000
  C   C48       1.0  0.89290  0.44711  0.34135  1.0000
  C   C49       1.0  0.86482  0.47431  0.34051  1.0000
  C   C50       1.0  0.80966  0.44665  0.33906  1.0000
  H   H20       1.0  0.49224  0.12235  0.34140  1.0000
  H   H21       1.0  0.53873  0.21578  0.33881  1.0000
  H   H22       1.0  0.63544  0.12235  0.34140  1.0000
  H   H23       1.0  0.68238  0.21578  0.33882  1.0000
  H   H24       1.0  0.79088  0.32428  0.33881  1.0000
  H   H25       1.0  0.88431  0.37123  0.34140  1.0000
  H   H26       1.0  0.79088  0.46793  0.33882  1.0000
  H   H27       1.0  0.88431  0.51442  0.34141  1.0000
  H   H28       1.0  0.68238  0.46793  0.33882  1.0000
  H   H29       1.0  0.63544  0.51442  0.34140  1.0000
  H   H30       1.0  0.49224  0.37123  0.34140  1.0000
  H   H31       1.0  0.53873  0.32428  0.33882  1.0000
  C   C51       1.0  0.47614  0.53052  0.34112  1.0000
  C   C52       1.0  0.48980  0.51686  0.42336  1.0000
  C   C53       1.0  0.51757  0.48909  0.42656  1.0000
  C   C54       1.0  0.53177  0.47489  0.34431  1.0000
  H   H32       1.0  0.47933  0.52733  0.48195  1.0000
  N   N7        1.0  0.52957  0.47709  0.50803  1.0000
  H   H33       1.0  0.51949  0.48717  0.56341  1.0000
  H   H34       1.0  0.54853  0.45813  0.51387  1.0000
  C   C55       1.0  0.47614  0.94695  0.34112  1.0000
  C   C56       1.0  0.48980  0.97428  0.42336  1.0000
  C   C57       1.0  0.51757  0.02981  0.42656  1.0000
  C   C58       1.0  0.53177  0.05821  0.34431  1.0000
  H   H35       1.0  0.47933  0.95333  0.48195  1.0000
  N   N8        1.0  0.52957  0.05382  0.50803  1.0000
  H   H36       1.0  0.51949  0.03365  0.56341  1.0000
  H   H37       1.0  0.54853  0.09173  0.51387  1.0000
  C   C59       1.0  0.97685  0.48909  0.42656  1.0000
  C   C60       1.0  0.94845  0.47489  0.34431  1.0000
  N   N9        1.0  0.95285  0.47709  0.50803  1.0000
  H   H38       1.0  0.97301  0.48717  0.56341  1.0000
  H   H39       1.0  0.91493  0.45813  0.51387  1.0000
