data_image0
_chemical_formula_structural       C18H9C3O3C18H9C3O3C2H2C3H2NHC2H2C3H2NHC2H2C3H2NHC6H6C6H6C7H2N2O4NHC7H2N2O4NHC7H2N2O4NH
_chemical_formula_sum              "C90 H54 O18 N12"
_cell_length_a       44.5352
_cell_length_b       44.5352
_cell_length_c       15.0398
_cell_angle_alpha    90
_cell_angle_beta     90
_cell_angle_gamma    120

_space_group_name_H-M_alt    "P 1"
_space_group_IT_number       1

loop_
  _space_group_symop_operation_xyz
  'x, y, z'

loop_
  _atom_site_type_symbol
  _atom_site_label
  _atom_site_symmetry_multiplicity
  _atom_site_fract_x
  _atom_site_fract_y
  _atom_site_fract_z
  _atom_site_occupancy
  C   C1        1.0  0.29471  0.64290  0.30294  1.0000
  C   C2        1.0  0.30929  0.67933  0.30277  1.0000
  C   C3        1.0  0.34556  0.70200  0.30296  1.0000
  C   C4        1.0  0.36740  0.68741  0.30278  1.0000
  C   C5        1.0  0.35380  0.65114  0.30294  1.0000
  C   C6        1.0  0.31737  0.62930  0.30278  1.0000
  C   C7        1.0  0.35975  0.73862  0.30610  1.0000
  C   C8        1.0  0.34736  0.75543  0.24951  1.0000
  C   C9        1.0  0.36142  0.79159  0.25323  1.0000
  C   C10       1.0  0.38860  0.81208  0.31292  1.0000
  C   C11       1.0  0.25809  0.62047  0.30609  1.0000
  C   C12       1.0  0.18463  0.57583  0.31295  1.0000
  C   C13       1.0  0.20512  0.56916  0.25325  1.0000
  C   C14       1.0  0.24127  0.59126  0.24951  1.0000
  C   C15       1.0  0.37623  0.63696  0.30613  1.0000
  C   C16       1.0  0.42087  0.60814  0.31302  1.0000
  C   C17       1.0  0.42755  0.63531  0.25331  1.0000
  C   C18       1.0  0.40545  0.64935  0.24956  1.0000
  H   H1        1.0  0.19385  0.54859  0.21034  1.0000
  H   H2        1.0  0.25515  0.58611  0.20386  1.0000
  H   H3        1.0  0.41058  0.66836  0.20385  1.0000
  H   H4        1.0  0.44811  0.64459  0.21037  1.0000
  H   H5        1.0  0.35213  0.80286  0.21031  1.0000
  H   H6        1.0  0.32834  0.74156  0.20386  1.0000
  H   H7        1.0  0.29317  0.68955  0.30370  1.0000
  H   H8        1.0  0.30715  0.60297  0.30372  1.0000
  H   H9        1.0  0.39374  0.70353  0.30372  1.0000
  C   C19       1.0  0.40303  0.84861  0.31663  1.0000
  C   C20       1.0  0.14809  0.55372  0.31670  1.0000
  C   C21       1.0  0.44298  0.59371  0.31679  1.0000
  O   O1        1.0  0.47718  0.61494  0.30010  1.0000
  O   O2        1.0  0.13512  0.51951  0.30008  1.0000
  O   O3        1.0  0.38181  0.86160  0.30010  1.0000
  C   C22       1.0  0.70162  0.35287  0.31524  1.0000
  C   C23       1.0  0.68512  0.31625  0.31522  1.0000
  C   C24       1.0  0.64860  0.29507  0.31528  1.0000
  C   C25       1.0  0.62849  0.31157  0.31521  1.0000
  C   C26       1.0  0.64382  0.34809  0.31522  1.0000
  C   C27       1.0  0.68044  0.36820  0.31518  1.0000
  C   C28       1.0  0.63252  0.25810  0.31522  1.0000
  C   C29       1.0  0.64507  0.24090  0.26067  1.0000
  C   C30       1.0  0.62897  0.20452  0.25995  1.0000
  C   C31       1.0  0.59962  0.18373  0.31364  1.0000
  C   C32       1.0  0.73858  0.37375  0.31515  1.0000
  C   C33       1.0  0.81296  0.41528  0.31363  1.0000
  C   C34       1.0  0.79215  0.42382  0.25990  1.0000
  C   C35       1.0  0.75578  0.40352  0.26059  1.0000
  C   C36       1.0  0.62294  0.36417  0.31512  1.0000
  C   C37       1.0  0.58141  0.39701  0.31358  1.0000
  C   C38       1.0  0.57287  0.36767  0.25988  1.0000
  C   C39       1.0  0.59317  0.35160  0.26057  1.0000
  H   H10       1.0  0.80322  0.44502  0.21904  1.0000
  H   H11       1.0  0.74201  0.41037  0.21901  1.0000
  H   H12       1.0  0.58630  0.33096  0.21904  1.0000
  H   H13       1.0  0.55165  0.35751  0.21905  1.0000
  H   H14       1.0  0.63911  0.19345  0.21908  1.0000
  H   H15       1.0  0.66570  0.25466  0.21911  1.0000
  H   H16       1.0  0.70005  0.30472  0.31511  1.0000
  H   H17       1.0  0.69197  0.39467  0.31503  1.0000
  H   H18       1.0  0.60202  0.29664  0.31509  1.0000
  C   C40       1.0  0.58284  0.14671  0.30958  1.0000
  C   C41       1.0  0.84998  0.43556  0.30964  1.0000
  C   C42       1.0  0.56112  0.41374  0.30960  1.0000
  O   O4        1.0  0.53913  0.40600  0.23988  1.0000
  O   O5        1.0  0.86422  0.45754  0.23992  1.0000
  O   O6        1.0  0.59060  0.13246  0.23991  1.0000
  C   C43       1.0  0.52662  0.48998  0.28637  1.0000
  C   C44       1.0  0.54463  0.47168  0.29190  1.0000
  H   H19       1.0  0.52787  0.50279  0.22871  1.0000
  H   H20       1.0  0.55897  0.47212  0.23828  1.0000
  C   C45       1.0  0.45016  0.54368  0.33593  1.0000
  C   C46       1.0  0.44070  0.51299  0.28795  1.0000
  C   C47       1.0  0.46016  0.49620  0.29549  1.0000
  H   H21       1.0  0.41983  0.50299  0.24596  1.0000
  H   H22       1.0  0.45274  0.47410  0.25932  1.0000
  N   N1        1.0  0.43036  0.55915  0.32950  1.0000
  H   H23       1.0  0.40531  0.54371  0.32641  1.0000
  C   C48       1.0  0.50664  0.03596  0.28639  1.0000
  C   C49       1.0  0.52492  0.07228  0.29191  1.0000
  H   H24       1.0  0.49383  0.02439  0.22874  1.0000
  H   H25       1.0  0.52445  0.08617  0.23830  1.0000
  C   C50       1.0  0.45306  0.90582  0.33597  1.0000
  C   C51       1.0  0.48373  0.92706  0.28792  1.0000
  C   C52       1.0  0.50051  0.96331  0.29550  1.0000
  H   H26       1.0  0.49373  0.91620  0.24589  1.0000
  H   H27       1.0  0.52259  0.97801  0.25925  1.0000
  N   N2        1.0  0.43759  0.87056  0.32947  1.0000
  H   H28       1.0  0.45304  0.86095  0.32636  1.0000
  C   C53       1.0  0.96071  0.47005  0.28639  1.0000
  C   C54       1.0  0.92440  0.45204  0.29193  1.0000
  H   H29       1.0  0.97227  0.46880  0.22873  1.0000
  H   H30       1.0  0.91049  0.43770  0.23832  1.0000
  C   C55       1.0  0.09087  0.54652  0.33590  1.0000
  C   C56       1.0  0.06964  0.55598  0.28793  1.0000
  C   C57       1.0  0.03339  0.53652  0.29550  1.0000
  H   H31       1.0  0.08050  0.57685  0.24593  1.0000
  H   H32       1.0  0.01870  0.54392  0.25930  1.0000
  N   N3        1.0  0.12614  0.56633  0.32946  1.0000
  H   H33       1.0  0.13574  0.59138  0.32637  1.0000
  C   C58       1.0  0.40063  0.79523  0.37038  1.0000
  C   C59       1.0  0.38642  0.75910  0.36709  1.0000
  C   C60       1.0  0.23760  0.62665  0.36707  1.0000
  C   C61       1.0  0.20147  0.60473  0.37036  1.0000
  C   C62       1.0  0.37006  0.61031  0.36715  1.0000
  C   C63       1.0  0.39198  0.59610  0.37045  1.0000
  H   H34       1.0  0.18771  0.60977  0.41660  1.0000
  H   H35       1.0  0.24885  0.64690  0.41093  1.0000
  H   H36       1.0  0.34979  0.60129  0.41096  1.0000
  H   H37       1.0  0.38693  0.57728  0.41667  1.0000
  H   H38       1.0  0.39541  0.74784  0.41094  1.0000
  H   H39       1.0  0.41945  0.80900  0.41658  1.0000
  C   C64       1.0  0.58695  0.20106  0.36754  1.0000
  C   C65       1.0  0.60320  0.23743  0.36885  1.0000
  C   C66       1.0  0.75927  0.36513  0.36881  1.0000
  C   C67       1.0  0.79564  0.38527  0.36751  1.0000
  C   C68       1.0  0.63157  0.39349  0.36875  1.0000
  C   C69       1.0  0.61142  0.40971  0.36746  1.0000
  H   H40       1.0  0.80915  0.37701  0.40541  1.0000
  H   H41       1.0  0.74804  0.34400  0.40994  1.0000
  H   H42       1.0  0.65270  0.40339  0.40986  1.0000
  H   H43       1.0  0.61968  0.43149  0.40531  1.0000
  H   H44       1.0  0.59330  0.24867  0.40996  1.0000
  H   H45       1.0  0.56516  0.18755  0.40537  1.0000
  C   C70       1.0  0.54341  0.45329  0.36986  1.0000
  C   C71       1.0  0.52504  0.45515  0.44499  1.0000
  C   C72       1.0  0.50720  0.47394  0.43898  1.0000
  C   C73       1.0  0.50757  0.49113  0.35980  1.0000
  C   C74       1.0  0.48893  0.50911  0.35351  1.0000
  C   C75       1.0  0.49832  0.53944  0.40409  1.0000
  C   C76       1.0  0.47877  0.55637  0.39445  1.0000
  H   H46       1.0  0.48518  0.57790  0.43203  1.0000
  H   H47       1.0  0.49337  0.47455  0.49268  1.0000
  N   N4        1.0  0.52726  0.55257  0.46191  1.0000
  N   N5        1.0  0.52417  0.43745  0.52400  1.0000
  O   O7        1.0  0.51860  0.55326  0.54106  1.0000
  O   O8        1.0  0.53712  0.45807  0.58824  1.0000
  O   O9        1.0  0.55021  0.58263  0.43977  1.0000
  O   O10       1.0  0.49375  0.41473  0.54402  1.0000
  N   N6        1.0  0.56126  0.43553  0.37375  1.0000
  H   H48       1.0  0.57283  0.43690  0.42967  1.0000
  C   C77       1.0  0.54333  0.08946  0.36984  1.0000
  C   C78       1.0  0.54150  0.06925  0.44496  1.0000
  C   C79       1.0  0.52275  0.03261  0.43895  1.0000
  C   C80       1.0  0.50554  0.01578  0.35980  1.0000
  C   C81       1.0  0.48759  0.97915  0.35353  1.0000
  C   C82       1.0  0.45727  0.95820  0.40415  1.0000
  C   C83       1.0  0.44037  0.92172  0.39453  1.0000
  H   H49       1.0  0.41883  0.90659  0.43209  1.0000
  H   H50       1.0  0.52216  0.01818  0.49266  1.0000
  N   N7        1.0  0.44413  0.97400  0.46196  1.0000
  N   N8        1.0  0.55921  0.08609  0.52395  1.0000
  O   O11       1.0  0.44345  0.96466  0.54112  1.0000
  O   O12       1.0  0.53860  0.07839  0.58822  1.0000
  O   O13       1.0  0.41406  0.96686  0.43985  1.0000
  O   O14       1.0  0.58196  0.07842  0.54391  1.0000
  N   N9        1.0  0.56103  0.12507  0.37370  1.0000
  H   H51       1.0  0.55969  0.13526  0.42969  1.0000
  C   C84       1.0  0.90723  0.45327  0.36990  1.0000
  C   C85       1.0  0.92746  0.47164  0.44502  1.0000
  C   C86       1.0  0.96410  0.48948  0.43899  1.0000
  C   C87       1.0  0.98091  0.48910  0.35982  1.0000
  C   C88       1.0  0.01754  0.50775  0.35351  1.0000
  C   C89       1.0  0.03849  0.49837  0.40409  1.0000
  C   C90       1.0  0.07496  0.51792  0.39443  1.0000
  H   H52       1.0  0.09008  0.51151  0.43202  1.0000
  H   H53       1.0  0.97854  0.50331  0.49269  1.0000
  N   N10       1.0  0.02268  0.46943  0.46191  1.0000
  N   N11       1.0  0.91063  0.47251  0.52403  1.0000
  O   O15       1.0  0.03204  0.47810  0.54107  1.0000
  O   O16       1.0  0.91831  0.45957  0.58827  1.0000
  O   O17       1.0  0.02980  0.44649  0.43979  1.0000
  O   O18       1.0  0.91835  0.50294  0.54403  1.0000
  N   N12       1.0  0.87162  0.43542  0.37379  1.0000
  H   H54       1.0  0.86143  0.42385  0.42971  1.0000
