data_image0
_chemical_formula_structural       CHC3H3C3H3C2HC3H3C3HCH3C3HCH3C3HCH2C3HCH3C3HCH3C3HCH3C3HCH3C3HCH3CHC6H3C6H3C6H3C6H3C6H3CHC3HCH3C3HCH3C3HCH3C3HCH3C3HCH2C3HCH3C3HCH3C3HCH3
_chemical_formula_sum              "C108 H90"
_cell_length_a       30.7249
_cell_length_b       30.7248
_cell_length_c       14.7999
_cell_angle_alpha    90
_cell_angle_beta     90
_cell_angle_gamma    120

_space_group_name_H-M_alt    "P 1"
_space_group_IT_number       1

loop_
  _space_group_symop_operation_xyz
  'x, y, z'

loop_
  _atom_site_type_symbol
  _atom_site_label
  _atom_site_symmetry_multiplicity
  _atom_site_fract_x
  _atom_site_fract_y
  _atom_site_fract_z
  _atom_site_occupancy
  C   C1        1.0  0.03796  0.53565  0.25998  1.0000
  H   H1        1.0  0.05834  0.55662  0.20562  1.0000
  C   C2        1.0  0.06428  0.53350  0.33685  1.0000
  C   C3        1.0  0.03527  0.50389  0.41158  1.0000
  C   C4        1.0  0.05754  0.50064  0.49899  1.0000
  H   H2        1.0  0.09821  0.52472  0.50211  1.0000
  H   H3        1.0  0.04870  0.46196  0.51038  1.0000
  H   H4        1.0  0.04173  0.51187  0.55428  1.0000
  C   C5        1.0  0.14571  0.61418  0.33861  1.0000
  C   C6        1.0  0.11846  0.56072  0.33589  1.0000
  C   C7        1.0  0.14596  0.53472  0.33744  1.0000
  H   H5        1.0  0.12657  0.63352  0.33931  1.0000
  H   H6        1.0  0.12700  0.49625  0.33619  1.0000
  H   H7        1.0  0.18919  0.51806  0.18385  1.0000
  C   C8        1.0  0.19904  0.56074  0.34558  1.0000
  C   C9        1.0  0.19867  0.64121  0.34878  1.0000
  H   H8        1.0  0.20763  0.65393  0.52708  1.0000
  C   C10       1.0  0.95561  0.47888  0.32846  1.0000
  C   C11       1.0  0.98462  0.50901  0.25426  1.0000
  C   C12       1.0  0.96203  0.51303  0.16791  1.0000
  H   H9        1.0  0.92128  0.48934  0.16571  1.0000
  H   H10       1.0  0.97724  0.50179  0.11166  1.0000
  H   H11       1.0  0.97125  0.55190  0.15756  1.0000
  C   C13       1.0  0.53803  0.48019  0.32843  1.0000
  C   C14       1.0  0.50791  0.47906  0.25421  1.0000
  C   C15       1.0  0.48127  0.50577  0.25992  1.0000
  H   H12       1.0  0.46030  0.50517  0.20554  1.0000
  C   C16       1.0  0.50389  0.45245  0.16787  1.0000
  H   H13       1.0  0.52759  0.43539  0.16568  1.0000
  H   H14       1.0  0.51513  0.47890  0.11162  1.0000
  H   H15       1.0  0.46503  0.42280  0.15752  1.0000
  C   C17       1.0  0.53677  0.06123  0.32844  1.0000
  C   C18       1.0  0.53789  0.03223  0.25423  1.0000
  C   C19       1.0  0.51117  0.97889  0.25992  1.0000
  H   H16       1.0  0.51177  0.95851  0.20555  1.0000
  C   C20       1.0  0.56451  0.05483  0.16789  1.0000
  H   H17       1.0  0.58158  0.09558  0.16571  1.0000
  H   H18       1.0  0.53807  0.03963  0.11164  1.0000
  H   H19       1.0  0.59415  0.04560  0.15755  1.0000
  C   C21       1.0  0.22875  0.53727  0.35251  1.0000
  C   C22       1.0  0.24778  0.52525  0.27430  1.0000
  C   C23       1.0  0.29376  0.52478  0.27954  1.0000
  H   H20       1.0  0.30949  0.52142  0.22069  1.0000
  C   C24       1.0  0.22495  0.51869  0.18298  1.0000
  H   H21       1.0  0.21806  0.48313  0.15393  1.0000
  H   H22       1.0  0.25062  0.54930  0.13882  1.0000
  C   C25       1.0  0.47951  0.69487  0.35280  1.0000
  C   C26       1.0  0.49167  0.72586  0.27445  1.0000
  C   C27       1.0  0.49218  0.77234  0.27962  1.0000
  H   H23       1.0  0.49557  0.79141  0.22074  1.0000
  C   C28       1.0  0.49825  0.70957  0.18315  1.0000
  H   H24       1.0  0.49885  0.67442  0.18404  1.0000
  H   H25       1.0  0.53382  0.73822  0.15413  1.0000
  H   H26       1.0  0.46766  0.70464  0.13895  1.0000
  C   C29       1.0  0.32208  0.78795  0.35265  1.0000
  C   C30       1.0  0.29108  0.76911  0.27431  1.0000
  C   C31       1.0  0.24461  0.72315  0.27951  1.0000
  H   H27       1.0  0.22552  0.70746  0.22064  1.0000
  C   C32       1.0  0.30735  0.79199  0.18302  1.0000
  H   H28       1.0  0.34249  0.82775  0.18389  1.0000
  H   H29       1.0  0.27868  0.79890  0.15404  1.0000
  H   H30       1.0  0.31227  0.76633  0.13879  1.0000
  C   C33       1.0  0.79161  0.47593  0.35433  1.0000
  C   C34       1.0  0.77307  0.48888  0.27650  1.0000
  C   C35       1.0  0.72722  0.48963  0.28223  1.0000
  H   H31       1.0  0.71158  0.49341  0.22361  1.0000
  C   C36       1.0  0.79576  0.49569  0.18498  1.0000
  H   H32       1.0  0.83129  0.49589  0.18519  1.0000
  H   H33       1.0  0.80299  0.53153  0.15673  1.0000
  H   H34       1.0  0.76983  0.46545  0.14045  1.0000
  C   C37       1.0  0.54095  0.31912  0.35428  1.0000
  C   C38       1.0  0.52803  0.28765  0.27646  1.0000
  C   C39       1.0  0.52733  0.24108  0.28221  1.0000
  H   H35       1.0  0.52355  0.22168  0.22356  1.0000
  C   C40       1.0  0.52123  0.30353  0.18494  1.0000
  H   H36       1.0  0.52101  0.33886  0.18516  1.0000
  H   H37       1.0  0.48541  0.27492  0.15666  1.0000
  H   H38       1.0  0.55150  0.30788  0.14043  1.0000
  C   C41       1.0  0.69783  0.22525  0.35429  1.0000
  C   C42       1.0  0.72931  0.24381  0.27646  1.0000
  C   C43       1.0  0.77589  0.28968  0.28219  1.0000
  H   H39       1.0  0.79531  0.30533  0.22358  1.0000
  C   C44       1.0  0.71344  0.22113  0.18494  1.0000
  H   H40       1.0  0.67811  0.18558  0.18516  1.0000
  H   H41       1.0  0.74206  0.21392  0.15668  1.0000
  H   H42       1.0  0.70910  0.24704  0.14042  1.0000
  C   C45       1.0  0.22417  0.61368  0.35210  1.0000
  H   H43       1.0  0.26265  0.63301  0.35783  1.0000
  C   C46       1.0  0.45611  0.64171  0.34558  1.0000
  C   C47       1.0  0.40319  0.61388  0.35235  1.0000
  C   C48       1.0  0.37568  0.56085  0.34891  1.0000
  C   C49       1.0  0.40272  0.53495  0.33837  1.0000
  C   C50       1.0  0.45618  0.56119  0.33581  1.0000
  C   C51       1.0  0.48215  0.61468  0.33744  1.0000
  H   H44       1.0  0.38340  0.49647  0.33921  1.0000
  H   H45       1.0  0.52063  0.63420  0.33625  1.0000
  H   H46       1.0  0.38385  0.63301  0.35823  1.0000
  C   C52       1.0  0.37524  0.81774  0.34538  1.0000
  C   C53       1.0  0.40310  0.79268  0.35223  1.0000
  C   C54       1.0  0.45613  0.81823  0.34885  1.0000
  C   C55       1.0  0.48201  0.87117  0.33838  1.0000
  C   C56       1.0  0.45575  0.89838  0.33580  1.0000
  C   C57       1.0  0.40226  0.87082  0.33736  1.0000
  H   H47       1.0  0.52049  0.89036  0.33929  1.0000
  H   H48       1.0  0.38271  0.88975  0.33615  1.0000
  H   H49       1.0  0.38400  0.75421  0.35805  1.0000
  C   C58       1.0  0.82127  0.45239  0.34665  1.0000
  C   C59       1.0  0.79620  0.39956  0.35576  1.0000
  C   C60       1.0  0.82140  0.37177  0.35147  1.0000
  C   C61       1.0  0.87408  0.39851  0.33756  1.0000
  C   C62       1.0  0.90141  0.45189  0.33125  1.0000
  C   C63       1.0  0.87415  0.47809  0.33483  1.0000
  H   H50       1.0  0.89303  0.37898  0.33635  1.0000
  H   H51       1.0  0.89321  0.51655  0.33228  1.0000
  H   H52       1.0  0.75781  0.38038  0.36319  1.0000
  C   C64       1.0  0.56449  0.37232  0.34663  1.0000
  C   C65       1.0  0.61733  0.40008  0.35577  1.0000
  C   C66       1.0  0.64513  0.45307  0.35148  1.0000
  C   C67       1.0  0.61840  0.47902  0.33757  1.0000
  C   C68       1.0  0.56502  0.45298  0.33125  1.0000
  C   C69       1.0  0.53880  0.39951  0.33481  1.0000
  H   H53       1.0  0.63793  0.51750  0.33636  1.0000
  H   H54       1.0  0.50035  0.38012  0.33223  1.0000
  H   H55       1.0  0.63650  0.38086  0.36320  1.0000
  C   C70       1.0  0.64462  0.19558  0.34660  1.0000
  C   C71       1.0  0.61685  0.22065  0.35565  1.0000
  C   C72       1.0  0.56386  0.19544  0.35136  1.0000
  C   C73       1.0  0.53792  0.14275  0.33759  1.0000
  C   C74       1.0  0.56397  0.11543  0.33125  1.0000
  C   C75       1.0  0.61745  0.14269  0.33482  1.0000
  H   H56       1.0  0.49945  0.12380  0.33631  1.0000
  H   H57       1.0  0.63684  0.12363  0.33228  1.0000
  H   H58       1.0  0.63607  0.25904  0.36307  1.0000
  C   C76       1.0  0.98199  0.47708  0.40557  1.0000
  H   H59       1.0  0.96166  0.45645  0.46030  1.0000
  C   C77       1.0  0.48341  0.53423  0.33678  1.0000
  C   C78       1.0  0.51301  0.53483  0.41152  1.0000
  C   C79       1.0  0.53983  0.50837  0.40552  1.0000
  H   H60       1.0  0.56045  0.50867  0.46026  1.0000
  C   C80       1.0  0.51626  0.56036  0.49894  1.0000
  H   H61       1.0  0.49216  0.57693  0.50205  1.0000
  H   H62       1.0  0.55493  0.59019  0.51034  1.0000
  H   H63       1.0  0.50503  0.53331  0.55422  1.0000
  C   C81       1.0  0.48269  0.95256  0.33677  1.0000
  C   C82       1.0  0.48209  0.98156  0.41150  1.0000
  C   C83       1.0  0.50857  0.03484  0.40553  1.0000
  H   H64       1.0  0.50827  0.05516  0.46027  1.0000
  C   C84       1.0  0.45655  0.95927  0.49891  1.0000
  H   H65       1.0  0.43995  0.91860  0.50200  1.0000
  H   H66       1.0  0.42673  0.96813  0.51031  1.0000
  H   H67       1.0  0.48359  0.97507  0.55421  1.0000
  C   C85       1.0  0.32272  0.53720  0.35979  1.0000
  C   C86       1.0  0.30229  0.54657  0.43891  1.0000
  C   C87       1.0  0.25607  0.54597  0.43406  1.0000
  H   H68       1.0  0.24426  0.55687  0.49014  1.0000
  C   C88       1.0  0.32917  0.56050  0.52726  1.0000
  H   H69       1.0  0.36288  0.55715  0.52719  1.0000
  H   H70       1.0  0.30447  0.53577  0.58026  1.0000
  H   H71       1.0  0.34009  0.59924  0.54417  1.0000
  C   C89       1.0  0.47981  0.78896  0.35984  1.0000
  C   C90       1.0  0.47045  0.75923  0.43905  1.0000
  C   C91       1.0  0.47097  0.71356  0.43435  1.0000
  H   H72       1.0  0.46002  0.69085  0.49042  1.0000
  C   C92       1.0  0.45658  0.77228  0.52736  1.0000
  H   H73       1.0  0.45999  0.80937  0.52717  1.0000
  H   H74       1.0  0.48131  0.77233  0.58038  1.0000
  H   H75       1.0  0.41783  0.74451  0.54433  1.0000
  C   C93       1.0  0.22800  0.69416  0.35973  1.0000
  C   C94       1.0  0.25775  0.71453  0.43892  1.0000
  C   C95       1.0  0.30342  0.76072  0.43419  1.0000
  H   H76       1.0  0.32613  0.77247  0.49025  1.0000
  C   C96       1.0  0.24472  0.68761  0.52723  1.0000
  H   H77       1.0  0.24469  0.71230  0.58026  1.0000
  H   H78       1.0  0.27249  0.67663  0.54417  1.0000
  C   C97       1.0  0.69811  0.47656  0.36234  1.0000
  C   C98       1.0  0.71837  0.46680  0.44126  1.0000
  C   C99       1.0  0.76449  0.46723  0.43609  1.0000
  H   H79       1.0  0.77623  0.45606  0.49189  1.0000
  C   C100      1.0  0.69155  0.45281  0.52967  1.0000
  H   H80       1.0  0.65796  0.45637  0.52984  1.0000
  H   H81       1.0  0.71635  0.47737  0.58274  1.0000
  H   H82       1.0  0.68046  0.41399  0.54627  1.0000
  C   C101      1.0  0.54040  0.22493  0.36223  1.0000
  C   C102      1.0  0.55008  0.25500  0.44109  1.0000
  C   C103      1.0  0.54963  0.30068  0.43600  1.0000
  H   H83       1.0  0.56077  0.32356  0.49184  1.0000
  C   C104      1.0  0.56408  0.24219  0.52951  1.0000
  H   H84       1.0  0.56055  0.20505  0.52969  1.0000
  H   H85       1.0  0.53950  0.24240  0.58257  1.0000
  H   H86       1.0  0.60289  0.26993  0.54613  1.0000
  C   C105      1.0  0.79191  0.31879  0.36231  1.0000
  C   C106      1.0  0.76189  0.29851  0.44123  1.0000
  C   C107      1.0  0.71623  0.25237  0.43605  1.0000
  H   H87       1.0  0.69332  0.24061  0.49185  1.0000
  C   C108      1.0  0.77470  0.32532  0.52963  1.0000
  H   H88       1.0  0.81184  0.35893  0.52982  1.0000
  H   H89       1.0  0.77447  0.30054  0.58271  1.0000
  H   H90       1.0  0.74696  0.33640  0.54623  1.0000
