data_image0
_chemical_formula_structural       C11H6C6H3C6N2C11H6C6H3C6N2C2HC4HN2H2O2CHC2HC4HN2H2O2CHC2HC4HN2H2O2CHC7H6NC7H6NC6H2NH2NO2CHC6H2NH2NO2CHC6H2NH2NO2CH
_chemical_formula_sum              "C102 H60 N18 O12"
_cell_length_a       52.6117
_cell_length_b       52.6227
_cell_length_c       14.877
_cell_angle_alpha    90
_cell_angle_beta     90
_cell_angle_gamma    119.986

_space_group_name_H-M_alt    "P 1"
_space_group_IT_number       1

loop_
  _space_group_symop_operation_xyz
  'x, y, z'

loop_
  _atom_site_type_symbol
  _atom_site_label
  _atom_site_symmetry_multiplicity
  _atom_site_fract_x
  _atom_site_fract_y
  _atom_site_fract_z
  _atom_site_occupancy
  C   C1        1.0  0.22523  0.61562  0.33415  1.0000
  C   C2        1.0  0.39389  0.61029  0.33470  1.0000
  C   C3        1.0  0.39945  0.78578  0.33239  1.0000
  C   C4        1.0  0.42377  0.57774  0.33519  1.0000
  C   C5        1.0  0.39345  0.56383  0.31633  1.0000
  C   C6        1.0  0.37865  0.57995  0.31525  1.0000
  C   C7        1.0  0.17833  0.61460  0.34655  1.0000
  C   C8        1.0  0.20925  0.63044  0.34488  1.0000
  C   C9        1.0  0.43052  0.84828  0.33508  1.0000
  C   C10       1.0  0.44570  0.83256  0.32842  1.0000
  C   C11       1.0  0.43039  0.80164  0.32649  1.0000
  H   H1        1.0  0.38198  0.54184  0.30233  1.0000
  H   H2        1.0  0.35668  0.56924  0.30055  1.0000
  H   H3        1.0  0.21987  0.65280  0.35205  1.0000
  H   H4        1.0  0.16724  0.62583  0.35478  1.0000
  H   H5        1.0  0.46813  0.84358  0.32451  1.0000
  H   H6        1.0  0.44211  0.79093  0.32133  1.0000
  C   C12       1.0  0.35640  0.70213  0.33239  1.0000
  C   C13       1.0  0.32539  0.68743  0.33251  1.0000
  C   C14       1.0  0.30887  0.65644  0.33314  1.0000
  C   C15       1.0  0.32358  0.64014  0.33366  1.0000
  C   C16       1.0  0.35458  0.65460  0.33354  1.0000
  C   C17       1.0  0.37088  0.68561  0.33294  1.0000
  H   H7        1.0  0.31165  0.61760  0.33411  1.0000
  H   H8        1.0  0.31477  0.69934  0.33217  1.0000
  H   H9        1.0  0.39342  0.69621  0.33288  1.0000
  C   C18       1.0  0.38510  0.75708  0.33187  1.0000
  C   C19       1.0  0.37155  0.73083  0.33194  1.0000
  C   C20       1.0  0.38027  0.62536  0.33422  1.0000
  C   C21       1.0  0.36802  0.63935  0.33391  1.0000
  C   C22       1.0  0.28018  0.64288  0.33330  1.0000
  C   C23       1.0  0.25392  0.63010  0.33358  1.0000
  N   N1        1.0  0.43678  0.56159  0.33766  1.0000
  N   N2        1.0  0.44626  0.87749  0.33893  1.0000
  C   C24       1.0  0.78791  0.39488  0.33784  1.0000
  C   C25       1.0  0.61611  0.39548  0.33806  1.0000
  C   C26       1.0  0.61567  0.22308  0.33689  1.0000
  C   C27       1.0  0.58413  0.42606  0.34149  1.0000
  C   C28       1.0  0.61215  0.43871  0.30124  1.0000
  C   C29       1.0  0.62807  0.42371  0.29962  1.0000
  C   C30       1.0  0.83498  0.39699  0.31442  1.0000
  C   C31       1.0  0.80406  0.38112  0.31326  1.0000
  C   C32       1.0  0.58524  0.16053  0.34033  1.0000
  C   C33       1.0  0.57218  0.17585  0.30235  1.0000
  C   C34       1.0  0.58712  0.20676  0.30071  1.0000
  H   H10       1.0  0.62132  0.45916  0.27299  1.0000
  H   H11       1.0  0.64839  0.43363  0.27014  1.0000
  H   H12       1.0  0.79358  0.35950  0.29431  1.0000
  H   H13       1.0  0.84619  0.38651  0.29647  1.0000
  H   H14       1.0  0.55147  0.16454  0.27588  1.0000
  H   H15       1.0  0.57689  0.21712  0.27298  1.0000
  C   C35       1.0  0.65736  0.30671  0.33599  1.0000
  C   C36       1.0  0.68838  0.32207  0.33624  1.0000
  C   C37       1.0  0.70426  0.35308  0.33653  1.0000
  C   C38       1.0  0.68891  0.36874  0.33663  1.0000
  C   C39       1.0  0.65789  0.35362  0.33638  1.0000
  C   C40       1.0  0.64223  0.32260  0.33610  1.0000
  H   H16       1.0  0.70037  0.39129  0.33686  1.0000
  H   H17       1.0  0.69947  0.31060  0.33620  1.0000
  H   H18       1.0  0.61967  0.31152  0.33597  1.0000
  C   C41       1.0  0.62966  0.25176  0.33593  1.0000
  C   C42       1.0  0.64278  0.27801  0.33577  1.0000
  C   C43       1.0  0.63072  0.38141  0.33690  1.0000
  C   C44       1.0  0.64378  0.36821  0.33649  1.0000
  C   C45       1.0  0.73297  0.36719  0.33673  1.0000
  C   C46       1.0  0.75922  0.38028  0.33705  1.0000
  N   N3        1.0  0.57046  0.44168  0.34010  1.0000
  N   N4        1.0  0.56956  0.13125  0.33958  1.0000
  C   C47       1.0  0.52421  0.48728  0.26784  1.0000
  C   C48       1.0  0.53590  0.46851  0.28291  1.0000
  H   H19       1.0  0.54346  0.46207  0.22903  1.0000
  C   C49       1.0  0.49987  0.51359  0.33424  1.0000
  C   C50       1.0  0.47353  0.54945  0.32001  1.0000
  C   C51       1.0  0.46089  0.52197  0.27490  1.0000
  C   C52       1.0  0.47408  0.50431  0.28342  1.0000
  H   H20       1.0  0.46480  0.48449  0.25106  1.0000
  N   N5        1.0  0.43552  0.51265  0.22097  1.0000
  N   N6        1.0  0.52479  0.49705  0.18268  1.0000
  H   H21       1.0  0.53307  0.49149  0.13308  1.0000
  H   H22       1.0  0.51865  0.51124  0.16926  1.0000
  O   O1        1.0  0.44032  0.50925  0.14035  1.0000
  O   O2        1.0  0.41438  0.48901  0.24935  1.0000
  C   C53       1.0  0.46213  0.56791  0.30693  1.0000
  H   H23       1.0  0.47476  0.58704  0.27648  1.0000
  C   C54       1.0  0.52289  0.03914  0.26925  1.0000
  C   C55       1.0  0.54219  0.06958  0.28262  1.0000
  H   H24       1.0  0.54849  0.08333  0.22812  1.0000
  C   C56       1.0  0.49620  0.98886  0.33813  1.0000
  C   C57       1.0  0.45911  0.92675  0.32575  1.0000
  C   C58       1.0  0.48639  0.94097  0.27930  1.0000
  C   C59       1.0  0.50467  0.97176  0.28696  1.0000
  H   H25       1.0  0.52430  0.98183  0.25346  1.0000
  N   N7        1.0  0.49488  0.92438  0.22468  1.0000
  N   N8        1.0  0.51248  0.02962  0.18479  1.0000
  H   H26       1.0  0.51797  0.04324  0.13459  1.0000
  H   H27       1.0  0.49792  0.00934  0.17255  1.0000
  O   O3        1.0  0.49798  0.93241  0.14393  1.0000
  O   O4        1.0  0.51841  0.92632  0.25177  1.0000
  C   C60       1.0  0.43996  0.89699  0.31272  1.0000
  H   H28       1.0  0.42071  0.89100  0.28393  1.0000
  C   C61       1.0  0.97183  0.48580  0.26993  1.0000
  C   C62       1.0  0.94137  0.47465  0.28269  1.0000
  H   H29       1.0  0.92767  0.46689  0.22812  1.0000
  C   C63       1.0  0.02202  0.50984  0.33930  1.0000
  C   C64       1.0  0.08405  0.53463  0.32602  1.0000
  C   C65       1.0  0.06985  0.54770  0.27959  1.0000
  C   C66       1.0  0.03908  0.53529  0.28765  1.0000
  H   H30       1.0  0.02899  0.54479  0.25391  1.0000
  N   N9        1.0  0.08643  0.57266  0.22454  1.0000
  N   N10       1.0  0.98147  0.48454  0.18598  1.0000
  H   H31       1.0  0.96792  0.47615  0.13572  1.0000
  H   H32       1.0  0.00180  0.49030  0.17424  1.0000
  O   O5        1.0  0.07829  0.56761  0.14391  1.0000
  O   O6        1.0  0.08461  0.59434  0.25136  1.0000
  C   C67       1.0  0.11368  0.54496  0.31170  1.0000
  H   H33       1.0  0.11927  0.53198  0.27915  1.0000
  C   C68       1.0  0.42409  0.62420  0.35548  1.0000
  C   C69       1.0  0.43882  0.60804  0.35599  1.0000
  C   C70       1.0  0.20979  0.58478  0.32530  1.0000
  C   C71       1.0  0.17889  0.56908  0.32680  1.0000
  C   C72       1.0  0.16270  0.58379  0.33670  1.0000
  C   C73       1.0  0.38414  0.80135  0.34031  1.0000
  C   C74       1.0  0.39953  0.83224  0.34189  1.0000
  H   H34       1.0  0.46060  0.61851  0.37250  1.0000
  H   H35       1.0  0.22078  0.57339  0.31833  1.0000
  H   H36       1.0  0.16837  0.54673  0.32192  1.0000
  H   H37       1.0  0.36171  0.79045  0.34576  1.0000
  H   H38       1.0  0.38791  0.84292  0.34944  1.0000
  H   H39       1.0  0.43567  0.64612  0.37077  1.0000
  N   N11       1.0  0.13347  0.57019  0.34096  1.0000
  C   C75       1.0  0.58799  0.38253  0.37771  1.0000
  C   C76       1.0  0.57220  0.39763  0.37920  1.0000
  C   C77       1.0  0.80318  0.42473  0.36312  1.0000
  C   C78       1.0  0.83408  0.44047  0.36434  1.0000
  C   C79       1.0  0.85045  0.42675  0.34074  1.0000
  C   C80       1.0  0.62902  0.20797  0.37426  1.0000
  C   C81       1.0  0.61399  0.17708  0.37578  1.0000
  H   H40       1.0  0.55180  0.38749  0.40770  1.0000
  H   H41       1.0  0.79206  0.43536  0.38073  1.0000
  H   H42       1.0  0.84446  0.46213  0.38201  1.0000
  H   H43       1.0  0.64978  0.21920  0.40068  1.0000
  H   H44       1.0  0.62440  0.16687  0.40278  1.0000
  H   H45       1.0  0.57867  0.36201  0.40572  1.0000
  N   N12       1.0  0.87971  0.44028  0.34009  1.0000
  C   C82       1.0  0.53732  0.45826  0.36966  1.0000
  C   C83       1.0  0.52666  0.46712  0.44389  1.0000
  C   C84       1.0  0.51469  0.48559  0.42921  1.0000
  C   C85       1.0  0.51301  0.49563  0.34245  1.0000
  C   C86       1.0  0.51181  0.54067  0.37979  1.0000
  C   C87       1.0  0.49917  0.55887  0.37380  1.0000
  H   H46       1.0  0.53040  0.54745  0.41750  1.0000
  H   H47       1.0  0.50667  0.49140  0.48339  1.0000
  N   N13       1.0  0.51214  0.58461  0.42050  1.0000
  H   H48       1.0  0.52949  0.59037  0.45731  1.0000
  H   H49       1.0  0.50415  0.59773  0.42105  1.0000
  N   N14       1.0  0.52824  0.45761  0.53186  1.0000
  O   O7        1.0  0.50321  0.44278  0.56637  1.0000
  O   O8        1.0  0.54380  0.47890  0.58267  1.0000
  C   C88       1.0  0.54756  0.43867  0.38105  1.0000
  H   H50       1.0  0.53706  0.42226  0.42423  1.0000
  C   C89       1.0  0.55314  0.08159  0.36855  1.0000
  C   C90       1.0  0.54448  0.06245  0.44367  1.0000
  C   C91       1.0  0.52546  0.03203  0.43070  1.0000
  C   C92       1.0  0.51469  0.01995  0.34475  1.0000
  C   C93       1.0  0.46935  0.97434  0.38521  1.0000
  C   C94       1.0  0.45056  0.94356  0.38012  1.0000
  H   H51       1.0  0.46315  0.98657  0.42320  1.0000
  H   H52       1.0  0.51978  0.01846  0.48550  1.0000
  N   N15       1.0  0.42508  0.93141  0.42815  1.0000
  H   H53       1.0  0.41992  0.94338  0.46536  1.0000
  H   H54       1.0  0.41163  0.91038  0.42943  1.0000
  N   N16       1.0  0.55476  0.07394  0.53081  1.0000
  O   O9        1.0  0.56945  0.06351  0.56479  1.0000
  O   O10       1.0  0.53394  0.06891  0.58289  1.0000
  C   C95       1.0  0.57313  0.11137  0.37823  1.0000
  H   H55       1.0  0.59016  0.11722  0.41881  1.0000
  C   C96       1.0  0.92925  0.47401  0.36813  1.0000
  C   C97       1.0  0.94830  0.48493  0.44338  1.0000
  C   C98       1.0  0.97875  0.49630  0.43103  1.0000
  C   C99       1.0  0.99093  0.49720  0.34555  1.0000
  C   C100      1.0  0.03654  0.49756  0.38658  1.0000
  C   C101      1.0  0.06729  0.50941  0.38094  1.0000
  H   H56       1.0  0.02431  0.47919  0.42484  1.0000
  H   H57       1.0  0.99226  0.50449  0.48586  1.0000
  N   N17       1.0  0.07949  0.49607  0.42870  1.0000
  H   H58       1.0  0.06757  0.47902  0.46624  1.0000
  H   H59       1.0  0.10051  0.50355  0.42929  1.0000
  N   N18       1.0  0.93667  0.48416  0.52999  1.0000
  O   O11       1.0  0.94702  0.50947  0.56253  1.0000
  O   O12       1.0  0.94168  0.46871  0.58353  1.0000
  C   C102      1.0  0.89945  0.46419  0.37700  1.0000
  H   H60       1.0  0.89345  0.47568  0.41570  1.0000
