data_image0
_chemical_formula_structural       C3H2NHC3H2NHC3H2NHCNCNCNC18H12C3O3CNCNCNC18H12C3O3C3NC2NH2NHC3NC2NH2NHC3NC2NH2NH
_chemical_formula_sum              "C72 H42 N18 O6"
_cell_length_a       36.7944
_cell_length_b       36.7939
_cell_length_c       15.0954
_cell_angle_alpha    90
_cell_angle_beta     90
_cell_angle_gamma    120

_space_group_name_H-M_alt    "P 1"
_space_group_IT_number       1

loop_
  _space_group_symop_operation_xyz
  'x, y, z'

loop_
  _atom_site_type_symbol
  _atom_site_label
  _atom_site_symmetry_multiplicity
  _atom_site_fract_x
  _atom_site_fract_y
  _atom_site_fract_z
  _atom_site_occupancy
  C   C1        1.0  0.51878  0.47614  0.31848  1.0000
  C   C2        1.0  0.50357  0.48856  0.24560  1.0000
  C   C3        1.0  0.48077  0.50931  0.25882  1.0000
  H   H1        1.0  0.47131  0.51916  0.20467  1.0000
  H   H2        1.0  0.50972  0.48325  0.18227  1.0000
  N   N1        1.0  0.53936  0.45468  0.30301  1.0000
  H   H3        1.0  0.52602  0.43110  0.26191  1.0000
  C   C4        1.0  0.51601  0.04106  0.31854  1.0000
  C   C5        1.0  0.50361  0.01346  0.24560  1.0000
  C   C6        1.0  0.48280  0.96991  0.25874  1.0000
  H   H4        1.0  0.47292  0.95062  0.20454  1.0000
  H   H5        1.0  0.50890  0.02496  0.18230  1.0000
  N   N2        1.0  0.53750  0.08312  0.30315  1.0000
  H   H6        1.0  0.56106  0.09336  0.26202  1.0000
  C   C7        1.0  0.95104  0.47339  0.31865  1.0000
  C   C8        1.0  0.97864  0.48858  0.24571  1.0000
  C   C9        1.0  0.02219  0.51132  0.25884  1.0000
  H   H7        1.0  0.04147  0.52075  0.20465  1.0000
  H   H8        1.0  0.96714  0.48240  0.18240  1.0000
  N   N3        1.0  0.90899  0.45286  0.30329  1.0000
  H   H9        1.0  0.89876  0.46613  0.26200  1.0000
  C   C10       1.0  0.28581  0.64711  0.33192  1.0000
  N   N4        1.0  0.30293  0.62188  0.33177  1.0000
  C   C11       1.0  0.34498  0.63709  0.33192  1.0000
  N   N5        1.0  0.37021  0.67944  0.33178  1.0000
  C   C12       1.0  0.35500  0.70628  0.33194  1.0000
  N   N6        1.0  0.31265  0.68916  0.33177  1.0000
  C   C13       1.0  0.36191  0.60987  0.32994  1.0000
  C   C14       1.0  0.33559  0.56566  0.33003  1.0000
  C   C15       1.0  0.35253  0.53891  0.32601  1.0000
  C   C16       1.0  0.39640  0.55555  0.32312  1.0000
  C   C17       1.0  0.42277  0.59961  0.32256  1.0000
  C   C18       1.0  0.40582  0.62628  0.32602  1.0000
  C   C19       1.0  0.24166  0.63018  0.32992  1.0000
  C   C20       1.0  0.21416  0.58626  0.32596  1.0000
  C   C21       1.0  0.17054  0.56930  0.32250  1.0000
  C   C22       1.0  0.15284  0.59567  0.32305  1.0000
  C   C23       1.0  0.18007  0.63954  0.32597  1.0000
  C   C24       1.0  0.22377  0.65649  0.33002  1.0000
  C   C25       1.0  0.38221  0.75043  0.32992  1.0000
  C   C26       1.0  0.36578  0.77793  0.32598  1.0000
  C   C27       1.0  0.39244  0.82155  0.32252  1.0000
  C   C28       1.0  0.43650  0.83925  0.32305  1.0000
  C   C29       1.0  0.45316  0.81203  0.32594  1.0000
  C   C30       1.0  0.42641  0.76833  0.33002  1.0000
  H   H10       1.0  0.15197  0.53743  0.31722  1.0000
  H   H11       1.0  0.22543  0.56587  0.32450  1.0000
  H   H12       1.0  0.16836  0.65959  0.32633  1.0000
  H   H13       1.0  0.24230  0.68844  0.33250  1.0000
  H   H14       1.0  0.33411  0.76665  0.32458  1.0000
  H   H15       1.0  0.37913  0.84011  0.31730  1.0000
  H   H16       1.0  0.43983  0.74980  0.33247  1.0000
  H   H17       1.0  0.48491  0.82375  0.32630  1.0000
  H   H18       1.0  0.42622  0.65795  0.32458  1.0000
  H   H19       1.0  0.45465  0.61291  0.31736  1.0000
  H   H20       1.0  0.33248  0.50715  0.32637  1.0000
  H   H21       1.0  0.30364  0.55225  0.33249  1.0000
  C   C31       1.0  0.10882  0.57833  0.31716  1.0000
  C   C32       1.0  0.46318  0.88328  0.31715  1.0000
  C   C33       1.0  0.41373  0.52886  0.31727  1.0000
  O   O1        1.0  0.39210  0.49245  0.27163  1.0000
  O   O2        1.0  0.49959  0.89806  0.27152  1.0000
  O   O3        1.0  0.09404  0.59998  0.27158  1.0000
  C   C34       1.0  0.70466  0.34628  0.31712  1.0000
  N   N7        1.0  0.68782  0.37176  0.31729  1.0000
  C   C35       1.0  0.64583  0.35681  0.31709  1.0000
  N   N8        1.0  0.62035  0.31449  0.31732  1.0000
  C   C36       1.0  0.63530  0.28745  0.31715  1.0000
  N   N9        1.0  0.67762  0.30429  0.31734  1.0000
  C   C37       1.0  0.62919  0.38426  0.31961  1.0000
  C   C38       1.0  0.65559  0.42841  0.31552  1.0000
  C   C39       1.0  0.63891  0.45538  0.32023  1.0000
  C   C40       1.0  0.59519  0.43900  0.32805  1.0000
  C   C41       1.0  0.56880  0.39499  0.33286  1.0000
  C   C42       1.0  0.58547  0.36812  0.32847  1.0000
  C   C43       1.0  0.74875  0.36294  0.31967  1.0000
  C   C44       1.0  0.77631  0.40666  0.32850  1.0000
  C   C45       1.0  0.81985  0.42335  0.33299  1.0000
  C   C46       1.0  0.83749  0.39697  0.32819  1.0000
  C   C47       1.0  0.81017  0.35325  0.32036  1.0000
  C   C48       1.0  0.76651  0.33654  0.31561  1.0000
  C   C49       1.0  0.60786  0.24336  0.31970  1.0000
  C   C50       1.0  0.62401  0.21579  0.32854  1.0000
  C   C51       1.0  0.59715  0.17225  0.33299  1.0000
  C   C52       1.0  0.55314  0.15462  0.32817  1.0000
  C   C53       1.0  0.53675  0.18194  0.32035  1.0000
  C   C54       1.0  0.56371  0.22560  0.31563  1.0000
  H   H22       1.0  0.83838  0.45501  0.34214  1.0000
  H   H23       1.0  0.76512  0.42706  0.33323  1.0000
  H   H24       1.0  0.82179  0.33316  0.31701  1.0000
  H   H25       1.0  0.74790  0.30472  0.30950  1.0000
  H   H26       1.0  0.65560  0.22698  0.33336  1.0000
  H   H27       1.0  0.61028  0.15372  0.34224  1.0000
  H   H28       1.0  0.55050  0.24421  0.30951  1.0000
  H   H29       1.0  0.50504  0.17033  0.31699  1.0000
  H   H30       1.0  0.56507  0.33654  0.33329  1.0000
  H   H31       1.0  0.53714  0.38187  0.34216  1.0000
  H   H32       1.0  0.65900  0.48708  0.31687  1.0000
  H   H33       1.0  0.68741  0.44161  0.30939  1.0000
  C   C55       1.0  0.88146  0.41405  0.33520  1.0000
  C   C56       1.0  0.52625  0.11064  0.33518  1.0000
  C   C57       1.0  0.57813  0.46591  0.33506  1.0000
  O   O4        1.0  0.60120  0.50339  0.37619  1.0000
  O   O5        1.0  0.48876  0.09622  0.37629  1.0000
  O   O6        1.0  0.89588  0.39099  0.37635  1.0000
  C   C58       1.0  0.47156  0.51712  0.34526  1.0000
  C   C59       1.0  0.48633  0.50441  0.41877  1.0000
  C   C60       1.0  0.50948  0.48347  0.40546  1.0000
  N   N10       1.0  0.52126  0.47002  0.47828  1.0000
  C   C61       1.0  0.51252  0.47618  0.56238  1.0000
  C   C62       1.0  0.49001  0.49728  0.57546  1.0000
  N   N11       1.0  0.47760  0.51034  0.50346  1.0000
  H   H34       1.0  0.52213  0.46554  0.61481  1.0000
  H   H35       1.0  0.48263  0.50237  0.63772  1.0000
  N   N12       1.0  0.45072  0.53867  0.35703  1.0000
  H   H36       1.0  0.46261  0.56155  0.39998  1.0000
  C   C63       1.0  0.47494  0.95285  0.34513  1.0000
  C   C64       1.0  0.48767  0.98030  0.41870  1.0000
  C   C65       1.0  0.50866  0.02440  0.40548  1.0000
  N   N13       1.0  0.52209  0.04960  0.47835  1.0000
  C   C66       1.0  0.51589  0.03466  0.56242  1.0000
  C   C67       1.0  0.49476  0.99104  0.57542  1.0000
  N   N14       1.0  0.48169  0.96560  0.50337  1.0000
  H   H37       1.0  0.52652  0.05487  0.61489  1.0000
  H   H38       1.0  0.48962  0.97854  0.63765  1.0000
  N   N15       1.0  0.45332  0.91045  0.35679  1.0000
  H   H39       1.0  0.43049  0.89948  0.39983  1.0000
  C   C68       1.0  0.03925  0.52054  0.34525  1.0000
  C   C69       1.0  0.01180  0.50580  0.41881  1.0000
  C   C70       1.0  0.96770  0.48269  0.40559  1.0000
  N   N16       1.0  0.94251  0.47093  0.47846  1.0000
  C   C71       1.0  0.95744  0.47966  0.56253  1.0000
  C   C72       1.0  0.00107  0.50215  0.57552  1.0000
  N   N17       1.0  0.02650  0.51452  0.50347  1.0000
  H   H40       1.0  0.93723  0.47007  0.61500  1.0000
  H   H41       1.0  0.01356  0.50950  0.63776  1.0000
  N   N18       1.0  0.08164  0.54133  0.35691  1.0000
  H   H42       1.0  0.09263  0.52944  0.39985  1.0000
