data_image0
_chemical_formula_structural       C2HC2H3N2C3HNH2CHC3HNH2CHC4NC4NH4N2C3H2CHC3H2CHC2HC2H3N2C3HNH2CHC3HNH2CHC4NC4NH4N2C3H2CHC3H2CHC2HC2H3N2C3HNH2CHC3HNH2CHC4NC4NH4N2C3H2CHC3H2CHC2HC2H3N2C3HNH2CHC3HNH2CHC4NC4NH4N2C3H2CHC3H2CH
_chemical_formula_sum              "C112 H88 N32"
_cell_length_a       31.5068
_cell_length_b       31.5068
_cell_length_c       14.9437
_cell_angle_alpha    90
_cell_angle_beta     90
_cell_angle_gamma    90

_space_group_name_H-M_alt    "P 1"
_space_group_IT_number       1

loop_
  _space_group_symop_operation_xyz
  'x, y, z'

loop_
  _atom_site_type_symbol
  _atom_site_label
  _atom_site_symmetry_multiplicity
  _atom_site_fract_x
  _atom_site_fract_y
  _atom_site_fract_z
  _atom_site_occupancy
  C   C1        1.0  0.49118  0.44532  0.32026  1.0000
  C   C2        1.0  0.46009  0.41292  0.32064  1.0000
  H   H1        1.0  0.02165  0.43520  0.31734  1.0000
  C   C3        1.0  0.03635  0.09853  0.32265  1.0000
  C   C4        1.0  0.00486  0.06649  0.32262  1.0000
  H   H2        1.0  0.47438  0.07687  0.32106  1.0000
  H   H3        1.0  0.10426  0.14794  0.32429  1.0000
  H   H4        1.0  0.39283  0.36292  0.32207  1.0000
  N   N1        1.0  0.02670  0.14047  0.32146  1.0000
  N   N2        1.0  0.47029  0.37105  0.31893  1.0000
  C   C5        1.0  0.03668  0.23102  0.31368  1.0000
  C   C6        1.0  0.04140  0.27583  0.31138  1.0000
  C   C7        1.0  0.00424  0.30188  0.31599  1.0000
  H   H5        1.0  0.06340  0.21272  0.31024  1.0000
  N   N3        1.0  0.08179  0.29114  0.30427  1.0000
  H   H6        1.0  0.10612  0.27215  0.30074  1.0000
  H   H7        1.0  0.08818  0.32109  0.30025  1.0000
  C   C8        1.0  0.00573  0.34692  0.31606  1.0000
  H   H8        1.0  0.03398  0.36248  0.31427  1.0000
  C   C9        1.0  0.27275  0.96706  0.32001  1.0000
  C   C10       1.0  0.22793  0.96234  0.31787  1.0000
  C   C11       1.0  0.20189  0.99950  0.32260  1.0000
  H   H9        1.0  0.29105  0.94034  0.31638  1.0000
  N   N4        1.0  0.21263  0.92195  0.31058  1.0000
  H   H10       1.0  0.23162  0.89763  0.30694  1.0000
  H   H11       1.0  0.18267  0.91556  0.30679  1.0000
  C   C12       1.0  0.15686  0.99803  0.32220  1.0000
  H   H12       1.0  0.14129  0.96979  0.32013  1.0000
  C   C13       1.0  0.48165  0.48961  0.32302  1.0000
  C   C14       1.0  0.41646  0.42380  0.32301  1.0000
  C   C15       1.0  0.40527  0.46741  0.32491  1.0000
  C   C16       1.0  0.43730  0.49890  0.32540  1.0000
  N   N5        1.0  0.38591  0.39291  0.32338  1.0000
  C   C17       1.0  0.01417  0.02214  0.32316  1.0000
  C   C18       1.0  0.05848  0.01260  0.32376  1.0000
  C   C19       1.0  0.09086  0.04370  0.32363  1.0000
  C   C20       1.0  0.07997  0.08735  0.32336  1.0000
  N   N6        1.0  0.11086  0.11790  0.32376  1.0000
  H   H13       1.0  0.14084  0.11098  0.32434  1.0000
  H   H14       1.0  0.35589  0.39948  0.32575  1.0000
  H   H15       1.0  0.42694  0.02937  0.32775  1.0000
  H   H16       1.0  0.06861  0.48211  0.32531  1.0000
  N   N7        1.0  0.13275  0.03350  0.32349  1.0000
  N   N8        1.0  0.36333  0.47706  0.32544  1.0000
  C   C21       1.0  0.96424  0.28119  0.32131  1.0000
  C   C22       1.0  0.96049  0.23677  0.32279  1.0000
  C   C23       1.0  0.99672  0.21066  0.31944  1.0000
  H   H17       1.0  0.93669  0.29822  0.32479  1.0000
  H   H18       1.0  0.93079  0.22369  0.32708  1.0000
  C   C24       1.0  0.99232  0.16600  0.32164  1.0000
  H   H19       1.0  0.96279  0.15257  0.32468  1.0000
  C   C25       1.0  0.22259  0.03949  0.32827  1.0000
  C   C26       1.0  0.26700  0.04323  0.32977  1.0000
  C   C27       1.0  0.29312  0.00701  0.32591  1.0000
  H   H20       1.0  0.20556  0.06703  0.33198  1.0000
  H   H21       1.0  0.28009  0.07292  0.33416  1.0000
  C   C28       1.0  0.33778  0.01142  0.32754  1.0000
  H   H22       1.0  0.35122  0.04094  0.33063  1.0000
  C   C29       1.0  0.49118  0.94532  0.32026  1.0000
  C   C30       1.0  0.46009  0.91292  0.32064  1.0000
  H   H23       1.0  0.02165  0.93520  0.31734  1.0000
  C   C31       1.0  0.03635  0.59853  0.32265  1.0000
  C   C32       1.0  0.00486  0.56650  0.32262  1.0000
  H   H24       1.0  0.47438  0.57687  0.32106  1.0000
  H   H25       1.0  0.10426  0.64794  0.32429  1.0000
  H   H26       1.0  0.39283  0.86292  0.32207  1.0000
  N   N9        1.0  0.02670  0.64047  0.32146  1.0000
  N   N10       1.0  0.47029  0.87105  0.31893  1.0000
  C   C33       1.0  0.03668  0.73102  0.31368  1.0000
  C   C34       1.0  0.04140  0.77584  0.31138  1.0000
  C   C35       1.0  0.00424  0.80188  0.31599  1.0000
  H   H27       1.0  0.06340  0.71271  0.31024  1.0000
  N   N11       1.0  0.08179  0.79114  0.30427  1.0000
  H   H28       1.0  0.10612  0.77215  0.30074  1.0000
  H   H29       1.0  0.08818  0.82109  0.30025  1.0000
  C   C36       1.0  0.00573  0.84692  0.31606  1.0000
  H   H30       1.0  0.03398  0.86248  0.31427  1.0000
  C   C37       1.0  0.27275  0.46706  0.32001  1.0000
  C   C38       1.0  0.22793  0.46234  0.31787  1.0000
  C   C39       1.0  0.20189  0.49950  0.32260  1.0000
  H   H31       1.0  0.29105  0.44034  0.31638  1.0000
  N   N12       1.0  0.21263  0.42195  0.31058  1.0000
  H   H32       1.0  0.23162  0.39763  0.30694  1.0000
  H   H33       1.0  0.18267  0.41556  0.30679  1.0000
  C   C40       1.0  0.15686  0.49803  0.32220  1.0000
  H   H34       1.0  0.14129  0.46979  0.32013  1.0000
  C   C41       1.0  0.48165  0.98961  0.32302  1.0000
  C   C42       1.0  0.41646  0.92380  0.32301  1.0000
  C   C43       1.0  0.40527  0.96741  0.32491  1.0000
  C   C44       1.0  0.43730  0.99890  0.32540  1.0000
  N   N13       1.0  0.38591  0.89291  0.32338  1.0000
  C   C45       1.0  0.01417  0.52214  0.32316  1.0000
  C   C46       1.0  0.05848  0.51260  0.32376  1.0000
  C   C47       1.0  0.09086  0.54370  0.32363  1.0000
  C   C48       1.0  0.07997  0.58735  0.32336  1.0000
  N   N14       1.0  0.11086  0.61790  0.32376  1.0000
  H   H35       1.0  0.14084  0.61098  0.32434  1.0000
  H   H36       1.0  0.35589  0.89948  0.32575  1.0000
  H   H37       1.0  0.42694  0.52937  0.32775  1.0000
  H   H38       1.0  0.06861  0.98212  0.32531  1.0000
  N   N15       1.0  0.13275  0.53350  0.32349  1.0000
  N   N16       1.0  0.36333  0.97706  0.32544  1.0000
  C   C49       1.0  0.96424  0.78119  0.32131  1.0000
  C   C50       1.0  0.96049  0.73678  0.32279  1.0000
  C   C51       1.0  0.99672  0.71066  0.31944  1.0000
  H   H39       1.0  0.93669  0.79822  0.32479  1.0000
  H   H40       1.0  0.93079  0.72369  0.32708  1.0000
  C   C52       1.0  0.99232  0.66601  0.32164  1.0000
  H   H41       1.0  0.96279  0.65257  0.32468  1.0000
  C   C53       1.0  0.22259  0.53950  0.32827  1.0000
  C   C54       1.0  0.26700  0.54323  0.32977  1.0000
  C   C55       1.0  0.29312  0.50701  0.32591  1.0000
  H   H42       1.0  0.20556  0.56703  0.33198  1.0000
  H   H43       1.0  0.28009  0.57292  0.33416  1.0000
  C   C56       1.0  0.33778  0.51142  0.32754  1.0000
  H   H44       1.0  0.35122  0.54094  0.33063  1.0000
  C   C57       1.0  0.99118  0.44532  0.32026  1.0000
  C   C58       1.0  0.96009  0.41292  0.32064  1.0000
  H   H45       1.0  0.52165  0.43520  0.31734  1.0000
  C   C59       1.0  0.53636  0.09853  0.32265  1.0000
  C   C60       1.0  0.50486  0.06649  0.32262  1.0000
  H   H46       1.0  0.97438  0.07687  0.32106  1.0000
  H   H47       1.0  0.60426  0.14794  0.32429  1.0000
  H   H48       1.0  0.89283  0.36292  0.32207  1.0000
  N   N17       1.0  0.52670  0.14047  0.32146  1.0000
  N   N18       1.0  0.97029  0.37105  0.31893  1.0000
  C   C61       1.0  0.53668  0.23102  0.31368  1.0000
  C   C62       1.0  0.54140  0.27583  0.31138  1.0000
  C   C63       1.0  0.50424  0.30188  0.31599  1.0000
  H   H49       1.0  0.56340  0.21272  0.31024  1.0000
  N   N19       1.0  0.58179  0.29114  0.30427  1.0000
  H   H50       1.0  0.60612  0.27215  0.30074  1.0000
  H   H51       1.0  0.58818  0.32109  0.30025  1.0000
  C   C64       1.0  0.50574  0.34692  0.31606  1.0000
  H   H52       1.0  0.53398  0.36248  0.31427  1.0000
  C   C65       1.0  0.77275  0.96706  0.32001  1.0000
  C   C66       1.0  0.72793  0.96234  0.31787  1.0000
  C   C67       1.0  0.70189  0.99950  0.32260  1.0000
  H   H53       1.0  0.79105  0.94034  0.31638  1.0000
  N   N20       1.0  0.71263  0.92195  0.31058  1.0000
  H   H54       1.0  0.73162  0.89763  0.30694  1.0000
  H   H55       1.0  0.68267  0.91556  0.30679  1.0000
  C   C68       1.0  0.65686  0.99803  0.32220  1.0000
  H   H56       1.0  0.64129  0.96979  0.32013  1.0000
  C   C69       1.0  0.98165  0.48961  0.32302  1.0000
  C   C70       1.0  0.91646  0.42380  0.32301  1.0000
  C   C71       1.0  0.90527  0.46741  0.32491  1.0000
  C   C72       1.0  0.93730  0.49890  0.32540  1.0000
  N   N21       1.0  0.88591  0.39291  0.32338  1.0000
  C   C73       1.0  0.51417  0.02214  0.32316  1.0000
  C   C74       1.0  0.55848  0.01260  0.32376  1.0000
  C   C75       1.0  0.59087  0.04370  0.32363  1.0000
  C   C76       1.0  0.57997  0.08735  0.32336  1.0000
  N   N22       1.0  0.61086  0.11790  0.32376  1.0000
  H   H57       1.0  0.64084  0.11098  0.32434  1.0000
  H   H58       1.0  0.85589  0.39948  0.32575  1.0000
  H   H59       1.0  0.92694  0.02937  0.32775  1.0000
  H   H60       1.0  0.56861  0.48211  0.32531  1.0000
  N   N23       1.0  0.63275  0.03350  0.32349  1.0000
  N   N24       1.0  0.86333  0.47706  0.32544  1.0000
  C   C77       1.0  0.46424  0.28119  0.32131  1.0000
  C   C78       1.0  0.46049  0.23677  0.32279  1.0000
  C   C79       1.0  0.49672  0.21066  0.31944  1.0000
  H   H61       1.0  0.43669  0.29822  0.32479  1.0000
  H   H62       1.0  0.43079  0.22369  0.32708  1.0000
  C   C80       1.0  0.49231  0.16600  0.32164  1.0000
  H   H63       1.0  0.46279  0.15257  0.32468  1.0000
  C   C81       1.0  0.72259  0.03949  0.32827  1.0000
  C   C82       1.0  0.76701  0.04323  0.32977  1.0000
  C   C83       1.0  0.79312  0.00701  0.32591  1.0000
  H   H64       1.0  0.70556  0.06703  0.33198  1.0000
  H   H65       1.0  0.78009  0.07292  0.33416  1.0000
  C   C84       1.0  0.83778  0.01142  0.32754  1.0000
  H   H66       1.0  0.85122  0.04094  0.33063  1.0000
  C   C85       1.0  0.99118  0.94532  0.32026  1.0000
  C   C86       1.0  0.96009  0.91292  0.32064  1.0000
  H   H67       1.0  0.52165  0.93520  0.31734  1.0000
  C   C87       1.0  0.53636  0.59853  0.32265  1.0000
  C   C88       1.0  0.50486  0.56650  0.32262  1.0000
  H   H68       1.0  0.97438  0.57687  0.32106  1.0000
  H   H69       1.0  0.60426  0.64794  0.32429  1.0000
  H   H70       1.0  0.89283  0.86292  0.32207  1.0000
  N   N25       1.0  0.52670  0.64047  0.32146  1.0000
  N   N26       1.0  0.97029  0.87105  0.31893  1.0000
  C   C89       1.0  0.53668  0.73102  0.31368  1.0000
  C   C90       1.0  0.54140  0.77584  0.31138  1.0000
  C   C91       1.0  0.50424  0.80188  0.31599  1.0000
  H   H71       1.0  0.56340  0.71271  0.31024  1.0000
  N   N27       1.0  0.58179  0.79114  0.30427  1.0000
  H   H72       1.0  0.60612  0.77215  0.30074  1.0000
  H   H73       1.0  0.58818  0.82109  0.30025  1.0000
  C   C92       1.0  0.50574  0.84692  0.31606  1.0000
  H   H74       1.0  0.53398  0.86248  0.31427  1.0000
  C   C93       1.0  0.77275  0.46706  0.32001  1.0000
  C   C94       1.0  0.72793  0.46234  0.31787  1.0000
  C   C95       1.0  0.70189  0.49950  0.32260  1.0000
  H   H75       1.0  0.79105  0.44034  0.31638  1.0000
  N   N28       1.0  0.71263  0.42195  0.31058  1.0000
  H   H76       1.0  0.73162  0.39763  0.30694  1.0000
  H   H77       1.0  0.68267  0.41556  0.30679  1.0000
  C   C96       1.0  0.65686  0.49803  0.32220  1.0000
  H   H78       1.0  0.64129  0.46979  0.32013  1.0000
  C   C97       1.0  0.98165  0.98961  0.32302  1.0000
  C   C98       1.0  0.91646  0.92380  0.32301  1.0000
  C   C99       1.0  0.90527  0.96741  0.32491  1.0000
  C   C100      1.0  0.93730  0.99890  0.32540  1.0000
  N   N29       1.0  0.88591  0.89291  0.32338  1.0000
  C   C101      1.0  0.51417  0.52214  0.32316  1.0000
  C   C102      1.0  0.55848  0.51260  0.32376  1.0000
  C   C103      1.0  0.59087  0.54370  0.32363  1.0000
  C   C104      1.0  0.57997  0.58735  0.32336  1.0000
  N   N30       1.0  0.61086  0.61790  0.32376  1.0000
  H   H79       1.0  0.64084  0.61098  0.32434  1.0000
  H   H80       1.0  0.85589  0.89948  0.32575  1.0000
  H   H81       1.0  0.92694  0.52937  0.32775  1.0000
  H   H82       1.0  0.56861  0.98212  0.32531  1.0000
  N   N31       1.0  0.63275  0.53350  0.32349  1.0000
  N   N32       1.0  0.86333  0.97706  0.32544  1.0000
  C   C105      1.0  0.46424  0.78119  0.32131  1.0000
  C   C106      1.0  0.46049  0.73678  0.32279  1.0000
  C   C107      1.0  0.49672  0.71066  0.31944  1.0000
  H   H83       1.0  0.43669  0.79822  0.32479  1.0000
  H   H84       1.0  0.43079  0.72369  0.32708  1.0000
  C   C108      1.0  0.49231  0.66601  0.32164  1.0000
  H   H85       1.0  0.46279  0.65257  0.32468  1.0000
  C   C109      1.0  0.72259  0.53950  0.32827  1.0000
  C   C110      1.0  0.76701  0.54323  0.32977  1.0000
  C   C111      1.0  0.79312  0.50701  0.32591  1.0000
  H   H86       1.0  0.70556  0.56703  0.33198  1.0000
  H   H87       1.0  0.78009  0.57292  0.33416  1.0000
  C   C112      1.0  0.83778  0.51142  0.32754  1.0000
  H   H88       1.0  0.85122  0.54094  0.33063  1.0000
