data_image0
_chemical_formula_structural       C3H3C3HC3H3C3HCHCHCHCHCHCH2CN2C2H2CHCH2CN2C2H2C4H3C5H3CH3C2H2NCNCNCNC3HC4H2CH3C6HCH3C4HCH3C4H3C5H3CH3C2H2NCNCNCNC3HC4H2CH3C6HCH3C4HCH3C5H3CH3C5H3CH3C5H3CH3CNCNCNCNCNCNC3HC4H2CH3C3HC4H2CH3C3HC4H2CH3C5H3CH3C5H3CH3C5H3CH3CNCNCNCNCNCNC3HC4H2CH3C3HC4H2CH3C3HC4H2CH3
_chemical_formula_sum              "C192 H144 N24"
_cell_length_a       44.1262
_cell_length_b       44.1262
_cell_length_c       14.8691
_cell_angle_alpha    90
_cell_angle_beta     90
_cell_angle_gamma    120

_space_group_name_H-M_alt    "P 1"
_space_group_IT_number       1

loop_
  _space_group_symop_operation_xyz
  'x, y, z'

loop_
  _atom_site_type_symbol
  _atom_site_label
  _atom_site_symmetry_multiplicity
  _atom_site_fract_x
  _atom_site_fract_y
  _atom_site_fract_z
  _atom_site_occupancy
  C   C1        1.0  0.08044  0.31847  0.31895  1.0000
  C   C2        1.0  0.04333  0.30066  0.31867  1.0000
  C   C3        1.0  0.02490  0.32026  0.29688  1.0000
  H   H1        1.0  0.04293  0.34788  0.28270  1.0000
  H   H2        1.0  0.00841  0.31889  0.35318  1.0000
  H   H3        1.0  0.00847  0.30884  0.23762  1.0000
  C   C4        1.0  0.02450  0.26422  0.33844  1.0000
  C   C5        1.0  0.04332  0.24672  0.35595  1.0000
  C   C6        1.0  0.08013  0.26486  0.35485  1.0000
  H   H4        1.0  0.03030  0.22051  0.37031  1.0000
  C   C7        1.0  0.08044  0.81847  0.31895  1.0000
  C   C8        1.0  0.04333  0.80066  0.31867  1.0000
  C   C9        1.0  0.02490  0.82026  0.29688  1.0000
  H   H5        1.0  0.04293  0.84788  0.28270  1.0000
  H   H6        1.0  0.00841  0.81889  0.35318  1.0000
  H   H7        1.0  0.00847  0.80884  0.23762  1.0000
  C   C10       1.0  0.02451  0.76422  0.33844  1.0000
  C   C11       1.0  0.04332  0.74672  0.35595  1.0000
  C   C12       1.0  0.08013  0.76486  0.35485  1.0000
  H   H8        1.0  0.03031  0.72051  0.37031  1.0000
  C   C13       1.0  0.09960  0.30121  0.33696  1.0000
  H   H9        1.0  0.09378  0.34465  0.30457  1.0000
  C   C14       1.0  0.13707  0.31978  0.33692  1.0000
  H   H10       1.0  0.09257  0.25109  0.36873  1.0000
  C   C15       1.0  0.09960  0.80121  0.33696  1.0000
  H   H11       1.0  0.09378  0.84466  0.30457  1.0000
  C   C16       1.0  0.13707  0.81978  0.33692  1.0000
  H   H12       1.0  0.09257  0.75109  0.36873  1.0000
  C   C17       1.0  0.19254  0.26417  0.31898  1.0000
  H   H13       1.0  0.16636  0.25133  0.30456  1.0000
  C   C18       1.0  0.19075  0.20684  0.29687  1.0000
  H   H14       1.0  0.16314  0.19726  0.28268  1.0000
  H   H15       1.0  0.19213  0.19173  0.35316  1.0000
  C   C19       1.0  0.19151  0.37394  0.33692  1.0000
  N   N1        1.0  0.15589  0.35541  0.33695  1.0000
  N   N2        1.0  0.15560  0.30268  0.33696  1.0000
  C   C20       1.0  0.19123  0.31949  0.33693  1.0000
  C   C21       1.0  0.19353  0.43087  0.35486  1.0000
  H   H16       1.0  0.16732  0.41843  0.36877  1.0000
  H   H17       1.0  0.19901  0.48070  0.37035  1.0000
  C   C22       1.0  0.19254  0.76417  0.31898  1.0000
  H   H18       1.0  0.16636  0.75133  0.30456  1.0000
  C   C23       1.0  0.19075  0.70684  0.29687  1.0000
  H   H19       1.0  0.16314  0.69725  0.28268  1.0000
  H   H20       1.0  0.19213  0.69173  0.35316  1.0000
  C   C24       1.0  0.19152  0.87394  0.33692  1.0000
  N   N3        1.0  0.15589  0.85541  0.33695  1.0000
  N   N4        1.0  0.15560  0.80268  0.33696  1.0000
  C   C25       1.0  0.19123  0.81949  0.33693  1.0000
  C   C26       1.0  0.19353  0.93087  0.35486  1.0000
  H   H21       1.0  0.16732  0.91843  0.36877  1.0000
  H   H22       1.0  0.19900  0.98070  0.37035  1.0000
  C   C27       1.0  0.20980  0.30058  0.33699  1.0000
  C   C28       1.0  0.21035  0.24488  0.31869  1.0000
  C   C29       1.0  0.28320  0.24298  0.26298  1.0000
  C   C30       1.0  0.30211  0.22507  0.26206  1.0000
  H   H23       1.0  0.28172  0.25468  0.20496  1.0000
  H   H24       1.0  0.31383  0.22408  0.20358  1.0000
  H   H25       1.0  0.20219  0.20184  0.23761  1.0000
  C   C31       1.0  0.21042  0.41141  0.33698  1.0000
  C   C32       1.0  0.24684  0.43057  0.31896  1.0000
  C   C33       1.0  0.26613  0.46768  0.31868  1.0000
  C   C34       1.0  0.26804  0.04242  0.26296  1.0000
  C   C35       1.0  0.28596  0.07924  0.26204  1.0000
  H   H26       1.0  0.25634  0.02925  0.20494  1.0000
  H   H27       1.0  0.28694  0.09195  0.20356  1.0000
  H   H28       1.0  0.25968  0.41723  0.30457  1.0000
  C   C36       1.0  0.30417  0.48611  0.29688  1.0000
  H   H29       1.0  0.31375  0.46809  0.28269  1.0000
  H   H30       1.0  0.31928  0.50260  0.35318  1.0000
  H   H31       1.0  0.30917  0.50255  0.23762  1.0000
  C   C37       1.0  0.46858  0.22782  0.26294  1.0000
  C   C38       1.0  0.43177  0.20893  0.26201  1.0000
  H   H32       1.0  0.48176  0.22930  0.20492  1.0000
  H   H33       1.0  0.41906  0.19718  0.20355  1.0000
  N   N5        1.0  0.20832  0.35512  0.33696  1.0000
  C   C39       1.0  0.32186  0.13532  0.33856  1.0000
  N   N6        1.0  0.35746  0.15316  0.33874  1.0000
  C   C40       1.0  0.37569  0.18874  0.33855  1.0000
  N   N7        1.0  0.35785  0.20650  0.33874  1.0000
  C   C41       1.0  0.32226  0.18915  0.33856  1.0000
  N   N8        1.0  0.30451  0.15355  0.33876  1.0000
  C   C42       1.0  0.24679  0.26249  0.33848  1.0000
  C   C43       1.0  0.26429  0.29880  0.35601  1.0000
  C   C44       1.0  0.24615  0.31748  0.35487  1.0000
  H   H34       1.0  0.25992  0.34369  0.36877  1.0000
  C   C45       1.0  0.26632  0.24469  0.34209  1.0000
  C   C46       1.0  0.30397  0.20779  0.33981  1.0000
  C   C47       1.0  0.28727  0.20953  0.41905  1.0000
  C   C48       1.0  0.26884  0.22820  0.42190  1.0000
  H   H35       1.0  0.28906  0.19742  0.47593  1.0000
  H   H36       1.0  0.29050  0.31200  0.37035  1.0000
  C   C49       1.0  0.25295  0.23053  0.50810  1.0000
  H   H37       1.0  0.22474  0.21906  0.50031  1.0000
  H   H38       1.0  0.26418  0.25792  0.52760  1.0000
  H   H39       1.0  0.25748  0.21689  0.56312  1.0000
  C   C50       1.0  0.24852  0.48650  0.33846  1.0000
  C   C51       1.0  0.21220  0.46769  0.35598  1.0000
  C   C52       1.0  0.26631  0.02383  0.34207  1.0000
  C   C53       1.0  0.30322  0.09839  0.33981  1.0000
  C   C54       1.0  0.30146  0.07994  0.41905  1.0000
  C   C55       1.0  0.28280  0.04283  0.42189  1.0000
  H   H40       1.0  0.31357  0.09383  0.47594  1.0000
  C   C56       1.0  0.28046  0.02462  0.50809  1.0000
  H   H41       1.0  0.29194  0.00788  0.50031  1.0000
  H   H42       1.0  0.25307  0.00845  0.52758  1.0000
  H   H43       1.0  0.29410  0.04279  0.56312  1.0000
  C   C57       1.0  0.48718  0.24470  0.34205  1.0000
  C   C58       1.0  0.41262  0.20704  0.33979  1.0000
  C   C59       1.0  0.43107  0.22373  0.41903  1.0000
  C   C60       1.0  0.46817  0.24217  0.42187  1.0000
  H   H44       1.0  0.41717  0.22193  0.47593  1.0000
  C   C61       1.0  0.48639  0.25804  0.50808  1.0000
  H   H45       1.0  0.50314  0.28626  0.50031  1.0000
  H   H46       1.0  0.50255  0.24680  0.52755  1.0000
  H   H47       1.0  0.46822  0.25351  0.56311  1.0000
  C   C62       1.0  0.20980  0.80058  0.33699  1.0000
  C   C63       1.0  0.21035  0.74488  0.31869  1.0000
  C   C64       1.0  0.28320  0.74298  0.26298  1.0000
  C   C65       1.0  0.30211  0.72507  0.26206  1.0000
  H   H48       1.0  0.28172  0.75468  0.20496  1.0000
  H   H49       1.0  0.31383  0.72408  0.20358  1.0000
  H   H50       1.0  0.20219  0.70184  0.23761  1.0000
  C   C66       1.0  0.21042  0.91141  0.33698  1.0000
  C   C67       1.0  0.24684  0.93057  0.31896  1.0000
  C   C68       1.0  0.26613  0.96768  0.31868  1.0000
  C   C69       1.0  0.26804  0.54242  0.26296  1.0000
  C   C70       1.0  0.28596  0.57924  0.26204  1.0000
  H   H51       1.0  0.25634  0.52925  0.20494  1.0000
  H   H52       1.0  0.28694  0.59195  0.20356  1.0000
  H   H53       1.0  0.25968  0.91723  0.30457  1.0000
  C   C71       1.0  0.30417  0.98611  0.29688  1.0000
  H   H54       1.0  0.31375  0.96809  0.28269  1.0000
  H   H55       1.0  0.31928  0.00260  0.35318  1.0000
  H   H56       1.0  0.30917  0.00254  0.23762  1.0000
  C   C72       1.0  0.46858  0.72783  0.26294  1.0000
  C   C73       1.0  0.43177  0.70893  0.26201  1.0000
  H   H57       1.0  0.48176  0.72930  0.20492  1.0000
  H   H58       1.0  0.41905  0.69718  0.20355  1.0000
  N   N9        1.0  0.20832  0.85512  0.33696  1.0000
  C   C74       1.0  0.32186  0.63532  0.33856  1.0000
  N   N10       1.0  0.35746  0.65316  0.33874  1.0000
  C   C75       1.0  0.37569  0.68875  0.33855  1.0000
  N   N11       1.0  0.35785  0.70650  0.33874  1.0000
  C   C76       1.0  0.32226  0.68915  0.33856  1.0000
  N   N12       1.0  0.30451  0.65355  0.33876  1.0000
  C   C77       1.0  0.24679  0.76249  0.33848  1.0000
  C   C78       1.0  0.26429  0.79880  0.35601  1.0000
  C   C79       1.0  0.24615  0.81748  0.35487  1.0000
  H   H59       1.0  0.25992  0.84369  0.36877  1.0000
  C   C80       1.0  0.26632  0.74470  0.34209  1.0000
  C   C81       1.0  0.30397  0.70779  0.33981  1.0000
  C   C82       1.0  0.28727  0.70953  0.41905  1.0000
  C   C83       1.0  0.26883  0.72820  0.42190  1.0000
  H   H60       1.0  0.28906  0.69742  0.47593  1.0000
  H   H61       1.0  0.29050  0.81200  0.37035  1.0000
  C   C84       1.0  0.25295  0.73053  0.50810  1.0000
  H   H62       1.0  0.22474  0.71906  0.50031  1.0000
  H   H63       1.0  0.26418  0.75792  0.52760  1.0000
  H   H64       1.0  0.25748  0.71689  0.56312  1.0000
  C   C85       1.0  0.24852  0.98650  0.33846  1.0000
  C   C86       1.0  0.21220  0.96769  0.35598  1.0000
  C   C87       1.0  0.26631  0.52383  0.34207  1.0000
  C   C88       1.0  0.30322  0.59839  0.33981  1.0000
  C   C89       1.0  0.30146  0.57994  0.41905  1.0000
  C   C90       1.0  0.28280  0.54283  0.42189  1.0000
  H   H65       1.0  0.31357  0.59383  0.47594  1.0000
  C   C91       1.0  0.28046  0.52462  0.50809  1.0000
  H   H66       1.0  0.29194  0.50788  0.50031  1.0000
  H   H67       1.0  0.25307  0.50845  0.52758  1.0000
  H   H68       1.0  0.29410  0.54279  0.56312  1.0000
  C   C92       1.0  0.48718  0.74470  0.34205  1.0000
  C   C93       1.0  0.41262  0.70704  0.33979  1.0000
  C   C94       1.0  0.43107  0.72373  0.41903  1.0000
  C   C95       1.0  0.46817  0.74217  0.42187  1.0000
  H   H69       1.0  0.41717  0.72193  0.47593  1.0000
  C   C96       1.0  0.48639  0.75804  0.50808  1.0000
  H   H70       1.0  0.50314  0.78626  0.50031  1.0000
  H   H71       1.0  0.50255  0.74680  0.52755  1.0000
  H   H72       1.0  0.46822  0.75351  0.56311  1.0000
  C   C97       1.0  0.70980  0.30058  0.33699  1.0000
  C   C98       1.0  0.69254  0.26417  0.31898  1.0000
  C   C99       1.0  0.71035  0.24488  0.31869  1.0000
  C   C100      1.0  0.78320  0.24298  0.26298  1.0000
  C   C101      1.0  0.80211  0.22507  0.26206  1.0000
  H   H73       1.0  0.78172  0.25468  0.20496  1.0000
  H   H74       1.0  0.81383  0.22408  0.20358  1.0000
  H   H75       1.0  0.66636  0.25133  0.30456  1.0000
  C   C102      1.0  0.69075  0.20684  0.29687  1.0000
  H   H76       1.0  0.66314  0.19726  0.28268  1.0000
  H   H77       1.0  0.69213  0.19173  0.35316  1.0000
  H   H78       1.0  0.70219  0.20184  0.23761  1.0000
  C   C103      1.0  0.71042  0.41141  0.33698  1.0000
  C   C104      1.0  0.74684  0.43057  0.31896  1.0000
  C   C105      1.0  0.76613  0.46768  0.31868  1.0000
  C   C106      1.0  0.76804  0.04242  0.26296  1.0000
  C   C107      1.0  0.78596  0.07924  0.26204  1.0000
  H   H79       1.0  0.75634  0.02925  0.20494  1.0000
  H   H80       1.0  0.78694  0.09195  0.20356  1.0000
  H   H81       1.0  0.75968  0.41723  0.30457  1.0000
  C   C108      1.0  0.80417  0.48611  0.29688  1.0000
  H   H82       1.0  0.81375  0.46809  0.28269  1.0000
  H   H83       1.0  0.81928  0.50260  0.35318  1.0000
  H   H84       1.0  0.80917  0.50255  0.23762  1.0000
  C   C109      1.0  0.59960  0.30121  0.33696  1.0000
  C   C110      1.0  0.58044  0.31847  0.31895  1.0000
  C   C111      1.0  0.54333  0.30066  0.31867  1.0000
  C   C112      1.0  0.96858  0.22782  0.26294  1.0000
  C   C113      1.0  0.93177  0.20893  0.26201  1.0000
  H   H85       1.0  0.98176  0.22930  0.20492  1.0000
  H   H86       1.0  0.91905  0.19718  0.20355  1.0000
  H   H87       1.0  0.59378  0.34465  0.30457  1.0000
  C   C114      1.0  0.52490  0.32026  0.29688  1.0000
  H   H88       1.0  0.54293  0.34788  0.28270  1.0000
  H   H89       1.0  0.50842  0.31889  0.35318  1.0000
  H   H90       1.0  0.50846  0.30884  0.23762  1.0000
  C   C115      1.0  0.69151  0.37394  0.33692  1.0000
  N   N13       1.0  0.65589  0.35541  0.33695  1.0000
  C   C116      1.0  0.63707  0.31978  0.33692  1.0000
  N   N14       1.0  0.65560  0.30268  0.33696  1.0000
  C   C117      1.0  0.69123  0.31949  0.33693  1.0000
  N   N15       1.0  0.70832  0.35512  0.33696  1.0000
  C   C118      1.0  0.82186  0.13532  0.33856  1.0000
  N   N16       1.0  0.85746  0.15316  0.33874  1.0000
  C   C119      1.0  0.87569  0.18874  0.33855  1.0000
  N   N17       1.0  0.85785  0.20650  0.33874  1.0000
  C   C120      1.0  0.82226  0.18915  0.33856  1.0000
  N   N18       1.0  0.80451  0.15355  0.33876  1.0000
  C   C121      1.0  0.74679  0.26249  0.33848  1.0000
  C   C122      1.0  0.76429  0.29880  0.35601  1.0000
  C   C123      1.0  0.74615  0.31748  0.35487  1.0000
  H   H91       1.0  0.75992  0.34369  0.36877  1.0000
  C   C124      1.0  0.76632  0.24469  0.34209  1.0000
  C   C125      1.0  0.80397  0.20779  0.33981  1.0000
  C   C126      1.0  0.78727  0.20953  0.41905  1.0000
  C   C127      1.0  0.76884  0.22820  0.42190  1.0000
  H   H92       1.0  0.78905  0.19742  0.47593  1.0000
  H   H93       1.0  0.79050  0.31200  0.37035  1.0000
  C   C128      1.0  0.75295  0.23053  0.50810  1.0000
  H   H94       1.0  0.72474  0.21906  0.50031  1.0000
  H   H95       1.0  0.76418  0.25792  0.52760  1.0000
  H   H96       1.0  0.75748  0.21689  0.56312  1.0000
  C   C129      1.0  0.74852  0.48650  0.33846  1.0000
  C   C130      1.0  0.71220  0.46769  0.35598  1.0000
  C   C131      1.0  0.69353  0.43087  0.35486  1.0000
  H   H97       1.0  0.66732  0.41843  0.36877  1.0000
  C   C132      1.0  0.76631  0.02383  0.34207  1.0000
  C   C133      1.0  0.80322  0.09839  0.33981  1.0000
  C   C134      1.0  0.80146  0.07994  0.41905  1.0000
  C   C135      1.0  0.78280  0.04283  0.42189  1.0000
  H   H98       1.0  0.81357  0.09383  0.47594  1.0000
  H   H99       1.0  0.69901  0.48070  0.37035  1.0000
  C   C136      1.0  0.78046  0.02462  0.50809  1.0000
  H   H100      1.0  0.79193  0.00788  0.50031  1.0000
  H   H101      1.0  0.75307  0.00845  0.52758  1.0000
  H   H102      1.0  0.79410  0.04279  0.56312  1.0000
  C   C137      1.0  0.52450  0.26422  0.33844  1.0000
  C   C138      1.0  0.54332  0.24672  0.35595  1.0000
  C   C139      1.0  0.58013  0.26486  0.35485  1.0000
  H   H103      1.0  0.59257  0.25109  0.36873  1.0000
  C   C140      1.0  0.98718  0.24470  0.34205  1.0000
  C   C141      1.0  0.91262  0.20704  0.33979  1.0000
  C   C142      1.0  0.93107  0.22373  0.41903  1.0000
  C   C143      1.0  0.96817  0.24217  0.42187  1.0000
  H   H104      1.0  0.91717  0.22193  0.47593  1.0000
  H   H105      1.0  0.53030  0.22051  0.37031  1.0000
  C   C144      1.0  0.98639  0.25804  0.50808  1.0000
  H   H106      1.0  0.00314  0.28626  0.50031  1.0000
  H   H107      1.0  0.00255  0.24680  0.52755  1.0000
  H   H108      1.0  0.96822  0.25351  0.56311  1.0000
  C   C145      1.0  0.70980  0.80058  0.33699  1.0000
  C   C146      1.0  0.69254  0.76417  0.31898  1.0000
  C   C147      1.0  0.71035  0.74488  0.31869  1.0000
  C   C148      1.0  0.78320  0.74298  0.26298  1.0000
  C   C149      1.0  0.80211  0.72507  0.26206  1.0000
  H   H109      1.0  0.78173  0.75468  0.20496  1.0000
  H   H110      1.0  0.81383  0.72408  0.20358  1.0000
  H   H111      1.0  0.66636  0.75133  0.30456  1.0000
  C   C150      1.0  0.69075  0.70684  0.29687  1.0000
  H   H112      1.0  0.66314  0.69725  0.28268  1.0000
  H   H113      1.0  0.69213  0.69173  0.35316  1.0000
  H   H114      1.0  0.70219  0.70184  0.23761  1.0000
  C   C151      1.0  0.71042  0.91141  0.33698  1.0000
  C   C152      1.0  0.74684  0.93057  0.31896  1.0000
  C   C153      1.0  0.76613  0.96768  0.31868  1.0000
  C   C154      1.0  0.76804  0.54242  0.26296  1.0000
  C   C155      1.0  0.78596  0.57924  0.26204  1.0000
  H   H115      1.0  0.75634  0.52925  0.20494  1.0000
  H   H116      1.0  0.78694  0.59195  0.20356  1.0000
  H   H117      1.0  0.75968  0.91723  0.30457  1.0000
  C   C156      1.0  0.80417  0.98611  0.29688  1.0000
  H   H118      1.0  0.81376  0.96809  0.28269  1.0000
  H   H119      1.0  0.81928  0.00260  0.35318  1.0000
  H   H120      1.0  0.80917  0.00254  0.23762  1.0000
  C   C157      1.0  0.59960  0.80121  0.33696  1.0000
  C   C158      1.0  0.58044  0.81847  0.31895  1.0000
  C   C159      1.0  0.54333  0.80066  0.31867  1.0000
  C   C160      1.0  0.96858  0.72783  0.26294  1.0000
  C   C161      1.0  0.93177  0.70893  0.26201  1.0000
  H   H121      1.0  0.98176  0.72930  0.20492  1.0000
  H   H122      1.0  0.91906  0.69718  0.20355  1.0000
  H   H123      1.0  0.59378  0.84466  0.30457  1.0000
  C   C162      1.0  0.52490  0.82026  0.29688  1.0000
  H   H124      1.0  0.54293  0.84788  0.28270  1.0000
  H   H125      1.0  0.50841  0.81889  0.35318  1.0000
  H   H126      1.0  0.50846  0.80884  0.23762  1.0000
  C   C163      1.0  0.69152  0.87394  0.33692  1.0000
  N   N19       1.0  0.65589  0.85541  0.33695  1.0000
  C   C164      1.0  0.63707  0.81978  0.33692  1.0000
  N   N20       1.0  0.65560  0.80268  0.33696  1.0000
  C   C165      1.0  0.69123  0.81949  0.33693  1.0000
  N   N21       1.0  0.70832  0.85512  0.33696  1.0000
  C   C166      1.0  0.82186  0.63532  0.33856  1.0000
  N   N22       1.0  0.85746  0.65316  0.33874  1.0000
  C   C167      1.0  0.87569  0.68875  0.33855  1.0000
  N   N23       1.0  0.85785  0.70650  0.33874  1.0000
  C   C168      1.0  0.82226  0.68915  0.33856  1.0000
  N   N24       1.0  0.80451  0.65355  0.33876  1.0000
  C   C169      1.0  0.74679  0.76249  0.33848  1.0000
  C   C170      1.0  0.76429  0.79880  0.35601  1.0000
  C   C171      1.0  0.74615  0.81748  0.35487  1.0000
  H   H127      1.0  0.75992  0.84369  0.36877  1.0000
  C   C172      1.0  0.76632  0.74470  0.34209  1.0000
  C   C173      1.0  0.80397  0.70779  0.33981  1.0000
  C   C174      1.0  0.78727  0.70953  0.41905  1.0000
  C   C175      1.0  0.76884  0.72820  0.42190  1.0000
  H   H128      1.0  0.78905  0.69742  0.47593  1.0000
  H   H129      1.0  0.79050  0.81200  0.37035  1.0000
  C   C176      1.0  0.75295  0.73053  0.50810  1.0000
  H   H130      1.0  0.72474  0.71906  0.50031  1.0000
  H   H131      1.0  0.76418  0.75792  0.52760  1.0000
  H   H132      1.0  0.75748  0.71689  0.56312  1.0000
  C   C177      1.0  0.74852  0.98650  0.33846  1.0000
  C   C178      1.0  0.71220  0.96769  0.35598  1.0000
  C   C179      1.0  0.69353  0.93087  0.35486  1.0000
  H   H133      1.0  0.66732  0.91843  0.36877  1.0000
  C   C180      1.0  0.76631  0.52383  0.34207  1.0000
  C   C181      1.0  0.80322  0.59839  0.33981  1.0000
  C   C182      1.0  0.80146  0.57994  0.41905  1.0000
  C   C183      1.0  0.78280  0.54283  0.42189  1.0000
  H   H134      1.0  0.81357  0.59383  0.47594  1.0000
  H   H135      1.0  0.69901  0.98070  0.37035  1.0000
  C   C184      1.0  0.78046  0.52462  0.50809  1.0000
  H   H136      1.0  0.79193  0.50788  0.50031  1.0000
  H   H137      1.0  0.75307  0.50845  0.52758  1.0000
  H   H138      1.0  0.79410  0.54279  0.56312  1.0000
  C   C185      1.0  0.52451  0.76422  0.33844  1.0000
  C   C186      1.0  0.54332  0.74672  0.35595  1.0000
  C   C187      1.0  0.58013  0.76486  0.35485  1.0000
  H   H139      1.0  0.59257  0.75109  0.36873  1.0000
  C   C188      1.0  0.98718  0.74470  0.34205  1.0000
  C   C189      1.0  0.91262  0.70704  0.33979  1.0000
  C   C190      1.0  0.93107  0.72373  0.41903  1.0000
  C   C191      1.0  0.96817  0.74217  0.42187  1.0000
  H   H140      1.0  0.91717  0.72193  0.47593  1.0000
  H   H141      1.0  0.53030  0.72051  0.37031  1.0000
  C   C192      1.0  0.98639  0.75804  0.50808  1.0000
  H   H142      1.0  0.00314  0.78626  0.50031  1.0000
  H   H143      1.0  0.00255  0.74680  0.52755  1.0000
  H   H144      1.0  0.96822  0.75351  0.56311  1.0000
