data_image0
_chemical_formula_structural       C4HNO2C4HNO2C2H2C2H2C4HNO2C4HNO2C2H2C2H2C4HNO2C4HNO2C4HNO2C4HNO2C2H2C2H2C4HNO2C4HNO2C2H2C2H2C4HNO2C4HNO2C2H2C2H2C4HNO2C4HNO2CNCNCNCNCNCNCNCNCNCNCNCNCNCNCNCNCNCNCNCNCNCNCNCNCNCNCNCNCNCNCNCNCNCNCNCNCNCNCNCNCNCNCNCNCNCNCNCNC2H2C2H2C4HNO2C4HNO2C2H2C2H2C4HNO2C4HNO2C2H2C2H2C2H2C2H2C4HNO2C4HNO2C2H2C2H2C4HNO2C4HNO2C2H2C2H2C4HNO2C4HNO2C2H2C2H2
_chemical_formula_sum              "C192 H72 N72 O48"
_cell_length_a       44.1232
_cell_length_b       34.5993
_cell_length_c       14.8684
_cell_angle_alpha    90
_cell_angle_beta     90
_cell_angle_gamma    90

_space_group_name_H-M_alt    "P 1"
_space_group_IT_number       1

loop_
  _space_group_symop_operation_xyz
  'x, y, z'

loop_
  _atom_site_type_symbol
  _atom_site_label
  _atom_site_symmetry_multiplicity
  _atom_site_fract_x
  _atom_site_fract_y
  _atom_site_fract_z
  _atom_site_occupancy
  C   C1        1.0  0.00568  0.96147  0.32570  1.0000
  C   C2        1.0  0.97852  0.98239  0.31230  1.0000
  C   C3        1.0  0.97737  0.02351  0.31078  1.0000
  C   C4        1.0  0.00416  0.04612  0.32350  1.0000
  H   H1        1.0  0.95872  0.96750  0.30306  1.0000
  N   N1        1.0  0.94904  0.04155  0.29596  1.0000
  O   O1        1.0  0.93014  0.03285  0.35593  1.0000
  O   O2        1.0  0.93823  0.03309  0.22022  1.0000
  C   C5        1.0  0.50584  0.46288  0.32603  1.0000
  C   C6        1.0  0.47857  0.48366  0.31313  1.0000
  C   C7        1.0  0.47725  0.52478  0.31177  1.0000
  C   C8        1.0  0.50397  0.54757  0.32432  1.0000
  H   H2        1.0  0.45882  0.46865  0.30401  1.0000
  N   N2        1.0  0.44885  0.54269  0.29708  1.0000
  O   O3        1.0  0.43000  0.53405  0.35724  1.0000
  O   O4        1.0  0.43799  0.53414  0.22146  1.0000
  C   C9        1.0  0.08722  0.15889  0.30768  1.0000
  C   C10       1.0  0.11361  0.18238  0.30870  1.0000
  H   H3        1.0  0.08811  0.13316  0.27387  1.0000
  H   H4        1.0  0.13256  0.17294  0.27575  1.0000
  C   C11       1.0  0.92329  0.85005  0.31357  1.0000
  C   C12       1.0  0.89664  0.82706  0.31516  1.0000
  H   H5        1.0  0.92219  0.87653  0.28314  1.0000
  H   H6        1.0  0.87737  0.83753  0.28568  1.0000
  C   C13       1.0  0.89714  0.22299  0.33310  1.0000
  C   C14       1.0  0.89538  0.18469  0.30015  1.0000
  C   C15       1.0  0.92088  0.15921  0.29938  1.0000
  C   C16       1.0  0.94967  0.17164  0.33244  1.0000
  H   H7        1.0  0.87533  0.17521  0.27360  1.0000
  N   N3        1.0  0.91787  0.12175  0.26260  1.0000
  O   O5        1.0  0.91157  0.12304  0.18023  1.0000
  O   O6        1.0  0.89748  0.10292  0.30224  1.0000
  C   C17       1.0  0.11403  0.78658  0.33927  1.0000
  C   C18       1.0  0.11556  0.82473  0.30482  1.0000
  C   C19       1.0  0.08990  0.84996  0.30341  1.0000
  C   C20       1.0  0.06135  0.83750  0.33803  1.0000
  H   H8        1.0  0.13544  0.83409  0.27693  1.0000
  N   N4        1.0  0.09219  0.88712  0.26428  1.0000
  O   O7        1.0  0.09922  0.88529  0.18247  1.0000
  O   O8        1.0  0.11134  0.90768  0.30454  1.0000
  C   C21       1.0  0.58686  0.66019  0.31138  1.0000
  C   C22       1.0  0.61321  0.68376  0.31126  1.0000
  H   H9        1.0  0.58813  0.63363  0.28138  1.0000
  H   H10       1.0  0.63246  0.67350  0.28126  1.0000
  C   C23       1.0  0.42376  0.35142  0.31405  1.0000
  C   C24       1.0  0.39715  0.32835  0.31438  1.0000
  H   H11       1.0  0.42247  0.37845  0.28644  1.0000
  H   H12       1.0  0.37774  0.33937  0.28682  1.0000
  C   C25       1.0  0.39648  0.72408  0.33669  1.0000
  C   C26       1.0  0.39487  0.68631  0.30039  1.0000
  C   C27       1.0  0.42039  0.66084  0.29861  1.0000
  C   C28       1.0  0.44896  0.67270  0.33429  1.0000
  H   H13       1.0  0.37496  0.67733  0.27203  1.0000
  N   N5        1.0  0.41774  0.62401  0.25827  1.0000
  O   O9        1.0  0.41189  0.62667  0.17580  1.0000
  O   O10       1.0  0.39724  0.60438  0.29516  1.0000
  C   C29       1.0  0.61469  0.28828  0.34197  1.0000
  C   C30       1.0  0.61600  0.32575  0.30370  1.0000
  C   C31       1.0  0.59029  0.35091  0.30101  1.0000
  C   C32       1.0  0.56199  0.33914  0.33850  1.0000
  H   H14       1.0  0.63571  0.33456  0.27382  1.0000
  N   N6        1.0  0.59217  0.38721  0.25754  1.0000
  O   O11       1.0  0.59852  0.38362  0.17557  1.0000
  O   O12       1.0  0.61162  0.40861  0.29393  1.0000
  C   C33       1.0  0.36464  0.15767  0.32475  1.0000
  C   C34       1.0  0.38899  0.14610  0.26984  1.0000
  C   C35       1.0  0.39791  0.10698  0.26439  1.0000
  C   C36       1.0  0.38267  0.07863  0.31756  1.0000
  H   H15       1.0  0.40055  0.16625  0.23284  1.0000
  N   N7        1.0  0.42209  0.09645  0.20635  1.0000
  O   O13       1.0  0.44647  0.11300  0.22735  1.0000
  O   O14       1.0  0.41614  0.10383  0.12552  1.0000
  C   C37       1.0  0.64452  0.85489  0.32366  1.0000
  C   C38       1.0  0.61975  0.86632  0.27031  1.0000
  C   C39       1.0  0.61081  0.90546  0.26433  1.0000
  C   C40       1.0  0.62658  0.93422  0.31508  1.0000
  H   H16       1.0  0.60784  0.84599  0.23481  1.0000
  N   N8        1.0  0.58610  0.91548  0.20786  1.0000
  O   O15       1.0  0.56210  0.89844  0.23062  1.0000
  O   O16       1.0  0.59152  0.90793  0.12677  1.0000
  C   C41       1.0  0.65346  0.08660  0.32232  1.0000
  C   C42       1.0  0.66259  0.12547  0.31500  1.0000
  H   H17       1.0  0.66372  0.06657  0.28185  1.0000
  H   H18       1.0  0.67963  0.13221  0.27100  1.0000
  C   C43       1.0  0.35736  0.92555  0.31363  1.0000
  C   C44       1.0  0.34829  0.88666  0.30658  1.0000
  H   H19       1.0  0.34672  0.94567  0.27424  1.0000
  H   H20       1.0  0.33099  0.87986  0.26354  1.0000
  C   C45       1.0  0.86470  0.65676  0.33231  1.0000
  C   C46       1.0  0.88871  0.64566  0.27555  1.0000
  C   C47       1.0  0.89762  0.60661  0.26776  1.0000
  C   C48       1.0  0.88262  0.57775  0.31999  1.0000
  H   H21       1.0  0.90004  0.66613  0.23886  1.0000
  N   N9        1.0  0.92153  0.59663  0.20822  1.0000
  O   O17       1.0  0.94600  0.61294  0.22926  1.0000
  O   O18       1.0  0.91524  0.60485  0.12806  1.0000
  C   C49       1.0  0.14464  0.35280  0.33190  1.0000
  C   C50       1.0  0.12049  0.36392  0.27576  1.0000
  C   C51       1.0  0.11153  0.40300  0.26791  1.0000
  C   C52       1.0  0.12676  0.43207  0.31907  1.0000
  H   H22       1.0  0.10903  0.34340  0.23957  1.0000
  N   N10       1.0  0.08736  0.41267  0.20911  1.0000
  O   O19       1.0  0.06326  0.39540  0.22994  1.0000
  O   O20       1.0  0.09366  0.40489  0.12872  1.0000
  C   C53       1.0  0.15310  0.58493  0.31507  1.0000
  C   C54       1.0  0.16211  0.62381  0.30664  1.0000
  H   H23       1.0  0.16297  0.56485  0.27384  1.0000
  H   H24       1.0  0.17863  0.63051  0.26096  1.0000
  C   C55       1.0  0.85728  0.42427  0.30559  1.0000
  C   C56       1.0  0.84843  0.38533  0.29733  1.0000
  H   H25       1.0  0.84706  0.44439  0.26527  1.0000
  H   H26       1.0  0.83169  0.37850  0.25245  1.0000
  C   C57       1.0  0.53668  0.00718  0.34620  1.0000
  C   C58       1.0  0.52074  0.98461  0.28282  1.0000
  C   C59       1.0  0.48881  0.98446  0.28068  1.0000
  C   C60       1.0  0.47300  0.00730  0.34430  1.0000
  H   H27       1.0  0.53227  0.96877  0.23589  1.0000
  N   N11       1.0  0.47274  0.96346  0.21412  1.0000
  O   O21       1.0  0.47887  0.97553  0.13648  1.0000
  O   O22       1.0  0.47852  0.92794  0.21786  1.0000
  C   C61       1.0  0.03667  0.50534  0.34282  1.0000
  C   C62       1.0  0.02076  0.48031  0.28454  1.0000
  C   C63       1.0  0.98883  0.47998  0.28201  1.0000
  C   C64       1.0  0.97283  0.50532  0.33994  1.0000
  H   H28       1.0  0.03233  0.46273  0.24126  1.0000
  N   N12       1.0  0.97300  0.45619  0.22021  1.0000
  O   O23       1.0  0.97937  0.46477  0.14027  1.0000
  O   O24       1.0  0.97872  0.42101  0.23261  1.0000
  C   C65       1.0  0.23560  0.23004  0.30208  1.0000
  C   C66       1.0  0.26724  0.22654  0.29347  1.0000
  H   H29       1.0  0.22207  0.21153  0.26641  1.0000
  H   H30       1.0  0.27541  0.20484  0.25345  1.0000
  C   C67       1.0  0.77461  0.78310  0.31299  1.0000
  C   C68       1.0  0.74307  0.78793  0.30474  1.0000
  H   H31       1.0  0.78853  0.80312  0.28359  1.0000
  H   H32       1.0  0.73547  0.81180  0.27095  1.0000
  C   C69       1.0  0.72370  0.24938  0.32219  1.0000
  C   C70       1.0  0.73561  0.27999  0.27057  1.0000
  C   C71       1.0  0.76736  0.28540  0.26056  1.0000
  C   C72       1.0  0.78818  0.25994  0.30420  1.0000
  H   H33       1.0  0.72109  0.29828  0.23785  1.0000
  N   N13       1.0  0.77843  0.31543  0.20470  1.0000
  O   O25       1.0  0.77034  0.31086  0.12437  1.0000
  O   O26       1.0  0.76973  0.34812  0.23111  1.0000
  C   C73       1.0  0.28733  0.76216  0.31809  1.0000
  C   C74       1.0  0.27571  0.72822  0.27862  1.0000
  C   C75       1.0  0.24405  0.72140  0.27170  1.0000
  C   C76       1.0  0.22285  0.74887  0.30657  1.0000
  H   H34       1.0  0.29043  0.70820  0.25284  1.0000
  N   N14       1.0  0.23365  0.68750  0.22793  1.0000
  O   O27       1.0  0.24166  0.68653  0.14685  1.0000
  O   O28       1.0  0.24282  0.65735  0.26651  1.0000
  C   C77       1.0  0.97725  0.14885  0.33084  1.0000
  N   N15       1.0  0.97832  0.10949  0.32583  1.0000
  C   C78       1.0  0.00454  0.08820  0.32609  1.0000
  N   N16       1.0  0.03102  0.10896  0.33255  1.0000
  C   C79       1.0  0.03202  0.14841  0.33866  1.0000
  N   N17       1.0  0.00470  0.16665  0.33700  1.0000
  C   C80       1.0  0.03368  0.85995  0.33551  1.0000
  N   N18       1.0  0.03247  0.89931  0.33032  1.0000
  C   C81       1.0  0.00589  0.91975  0.32925  1.0000
  N   N19       1.0  0.97954  0.89875  0.33438  1.0000
  C   C82       1.0  0.97885  0.85936  0.34072  1.0000
  N   N20       1.0  0.00639  0.84164  0.34041  1.0000
  C   C83       1.0  0.47658  0.65005  0.33194  1.0000
  N   N21       1.0  0.47783  0.61072  0.32697  1.0000
  C   C84       1.0  0.50417  0.58967  0.32697  1.0000
  N   N22       1.0  0.53055  0.61069  0.33312  1.0000
  C   C85       1.0  0.53138  0.65018  0.33909  1.0000
  N   N23       1.0  0.50392  0.66808  0.33762  1.0000
  C   C86       1.0  0.53429  0.36150  0.33528  1.0000
  N   N24       1.0  0.53295  0.40087  0.33038  1.0000
  C   C87       1.0  0.50626  0.42112  0.32917  1.0000
  N   N25       1.0  0.48001  0.39988  0.33373  1.0000
  C   C88       1.0  0.47945  0.36046  0.33965  1.0000
  N   N26       1.0  0.50709  0.34299  0.33959  1.0000
  C   C89       1.0  0.39528  0.97350  0.35832  1.0000
  N   N27       1.0  0.38000  0.00746  0.34383  1.0000
  C   C90       1.0  0.39546  0.04141  0.33108  1.0000
  N   N28       1.0  0.42610  0.04052  0.33537  1.0000
  C   C91       1.0  0.44150  0.00747  0.34655  1.0000
  N   N29       1.0  0.42594  0.97442  0.35618  1.0000
  C   C92       1.0  0.61517  0.03901  0.36590  1.0000
  N   N30       1.0  0.62997  0.00511  0.34679  1.0000
  C   C93       1.0  0.61421  0.97184  0.32845  1.0000
  N   N31       1.0  0.58359  0.97368  0.33103  1.0000
  C   C94       1.0  0.56835  0.00653  0.34768  1.0000
  N   N32       1.0  0.58449  0.03871  0.36396  1.0000
  C   C95       1.0  0.89478  0.47214  0.35357  1.0000
  N   N33       1.0  0.87963  0.50636  0.34169  1.0000
  C   C96       1.0  0.89527  0.54026  0.33032  1.0000
  N   N34       1.0  0.92591  0.53898  0.33317  1.0000
  C   C97       1.0  0.94124  0.50569  0.34170  1.0000
  N   N35       1.0  0.92544  0.47275  0.35058  1.0000
  C   C98       1.0  0.11524  0.53739  0.36197  1.0000
  N   N36       1.0  0.13010  0.50326  0.34591  1.0000
  C   C99       1.0  0.11435  0.46982  0.32952  1.0000
  N   N37       1.0  0.08372  0.47171  0.33105  1.0000
  C   C100      1.0  0.06840  0.50478  0.34487  1.0000
  N   N38       1.0  0.08456  0.53715  0.35939  1.0000
  C   C101      1.0  0.13840  0.24641  0.34487  1.0000
  N   N39       1.0  0.16865  0.23728  0.34979  1.0000
  C   C102      1.0  0.19066  0.26544  0.35256  1.0000
  N   N40       1.0  0.18163  0.30275  0.34657  1.0000
  C   C103      1.0  0.15233  0.31327  0.33993  1.0000
  N   N41       1.0  0.13127  0.28470  0.33930  1.0000
  C   C104      1.0  0.87152  0.76284  0.34750  1.0000
  N   N42       1.0  0.84130  0.77225  0.35267  1.0000
  C   C105      1.0  0.81903  0.74435  0.35444  1.0000
  N   N43       1.0  0.82793  0.70703  0.34733  1.0000
  C   C106      1.0  0.85713  0.69624  0.34062  1.0000
  N   N44       1.0  0.87834  0.72454  0.34075  1.0000
  C   C107      1.0  0.87225  0.24992  0.32855  1.0000
  N   N45       1.0  0.84243  0.24016  0.31538  1.0000
  C   C108      1.0  0.81998  0.26755  0.30903  1.0000
  N   N46       1.0  0.82808  0.30510  0.31857  1.0000
  C   C109      1.0  0.85700  0.31631  0.33200  1.0000
  N   N47       1.0  0.87844  0.28831  0.33708  1.0000
  C   C110      1.0  0.13880  0.75943  0.33470  1.0000
  N   N48       1.0  0.16859  0.76883  0.31947  1.0000
  C   C111      1.0  0.19100  0.74132  0.31371  1.0000
  N   N49       1.0  0.18271  0.70398  0.32571  1.0000
  C   C112      1.0  0.15387  0.69295  0.34090  1.0000
  N   N50       1.0  0.13255  0.72112  0.34545  1.0000
  C   C113      1.0  0.63774  0.74866  0.33987  1.0000
  N   N51       1.0  0.66798  0.73927  0.34107  1.0000
  C   C114      1.0  0.69025  0.76705  0.33651  1.0000
  N   N52       1.0  0.68139  0.80449  0.33229  1.0000
  C   C115      1.0  0.65209  0.81530  0.33033  1.0000
  N   N53       1.0  0.63083  0.78700  0.33365  1.0000
  C   C116      1.0  0.37206  0.26363  0.34072  1.0000
  N   N54       1.0  0.34186  0.27343  0.34082  1.0000
  C   C117      1.0  0.31944  0.24586  0.33527  1.0000
  N   N55       1.0  0.32797  0.20829  0.33177  1.0000
  C   C118      1.0  0.35720  0.19721  0.33106  1.0000
  N   N56       1.0  0.37862  0.22522  0.33479  1.0000
  C   C119      1.0  0.37168  0.75117  0.33412  1.0000
  N   N57       1.0  0.34163  0.74177  0.32393  1.0000
  C   C120      1.0  0.31920  0.76936  0.32366  1.0000
  N   N58       1.0  0.32782  0.80680  0.33161  1.0000
  C   C121      1.0  0.35696  0.81769  0.34105  1.0000
  N   N59       1.0  0.37825  0.78946  0.34301  1.0000
  C   C122      1.0  0.63948  0.26107  0.33972  1.0000
  N   N60       1.0  0.66951  0.27034  0.32828  1.0000
  C   C123      1.0  0.69185  0.24265  0.32896  1.0000
  N   N61       1.0  0.68326  0.20528  0.33866  1.0000
  C   C124      1.0  0.65415  0.19451  0.34916  1.0000
  N   N62       1.0  0.63289  0.22283  0.35041  1.0000
  C   C125      1.0  0.03145  0.02489  0.33565  1.0000
  C   C126      1.0  0.03223  0.98402  0.33655  1.0000
  H   H35       1.0  0.05150  0.03911  0.34544  1.0000
  H   H36       1.0  0.05266  0.97080  0.34694  1.0000
  C   C127      1.0  0.53134  0.52650  0.33610  1.0000
  C   C128      1.0  0.53229  0.48563  0.33673  1.0000
  H   H37       1.0  0.55134  0.54086  0.34568  1.0000
  H   H38       1.0  0.55280  0.47254  0.34673  1.0000
  C   C129      1.0  0.11356  0.21944  0.34897  1.0000
  C   C130      1.0  0.08640  0.23054  0.39256  1.0000
  C   C131      1.0  0.05987  0.20737  0.39271  1.0000
  C   C132      1.0  0.05947  0.17107  0.34712  1.0000
  H   H39       1.0  0.08558  0.25648  0.42566  1.0000
  N   N63       1.0  0.03409  0.22049  0.44075  1.0000
  O   O29       1.0  0.02500  0.25275  0.41258  1.0000
  O   O30       1.0  0.03932  0.22310  0.52363  1.0000
  C   C133      1.0  0.89675  0.78926  0.35146  1.0000
  C   C134      1.0  0.92437  0.77682  0.39038  1.0000
  C   C135      1.0  0.95117  0.79943  0.38982  1.0000
  C   C136      1.0  0.95140  0.83665  0.34847  1.0000
  H   H40       1.0  0.92536  0.75024  0.42056  1.0000
  N   N64       1.0  0.97741  0.78463  0.43272  1.0000
  O   O31       1.0  0.98593  0.75323  0.39835  1.0000
  O   O32       1.0  0.97337  0.77974  0.51562  1.0000
  C   C137      1.0  0.95086  0.20972  0.36760  1.0000
  C   C138      1.0  0.92562  0.23453  0.36785  1.0000
  H   H41       1.0  0.97044  0.22029  0.39434  1.0000
  H   H42       1.0  0.92854  0.26161  0.39403  1.0000
  C   C139      1.0  0.06045  0.79986  0.37561  1.0000
  C   C140      1.0  0.08579  0.77525  0.37603  1.0000
  H   H43       1.0  0.04103  0.78948  0.40385  1.0000
  H   H44       1.0  0.08306  0.74841  0.40374  1.0000
  C   C141      1.0  0.61281  0.72180  0.34626  1.0000
  C   C142      1.0  0.58522  0.73391  0.38582  1.0000
  C   C143      1.0  0.55871  0.71072  0.38693  1.0000
  C   C144      1.0  0.55872  0.67324  0.34666  1.0000
  H   H45       1.0  0.58403  0.76068  0.41497  1.0000
  N   N65       1.0  0.53247  0.72532  0.43021  1.0000
  O   O33       1.0  0.52356  0.75645  0.39533  1.0000
  O   O34       1.0  0.53674  0.73067  0.51286  1.0000
  C   C145      1.0  0.39740  0.28991  0.34684  1.0000
  C   C146      1.0  0.42525  0.27680  0.38311  1.0000
  C   C147      1.0  0.45204  0.29945  0.38367  1.0000
  C   C148      1.0  0.45206  0.33746  0.34631  1.0000
  H   H46       1.0  0.42645  0.24965  0.41030  1.0000
  N   N66       1.0  0.47852  0.28375  0.42341  1.0000
  O   O35       1.0  0.48702  0.25334  0.38449  1.0000
  O   O36       1.0  0.47499  0.27685  0.50576  1.0000
  C   C149      1.0  0.44995  0.71013  0.37309  1.0000
  C   C150      1.0  0.42474  0.73495  0.37408  1.0000
  H   H47       1.0  0.46933  0.72010  0.40233  1.0000
  H   H48       1.0  0.42749  0.76151  0.40320  1.0000
  C   C151      1.0  0.56131  0.30222  0.37978  1.0000
  C   C152      1.0  0.58665  0.27763  0.38122  1.0000
  H   H49       1.0  0.54205  0.29242  0.41023  1.0000
  H   H50       1.0  0.58414  0.25136  0.41193  1.0000
  C   C153      1.0  0.35717  0.09000  0.36859  1.0000
  C   C154      1.0  0.34810  0.12899  0.37142  1.0000
  H   H51       1.0  0.34622  0.07056  0.40906  1.0000
  H   H52       1.0  0.33042  0.13657  0.41236  1.0000
  C   C155      1.0  0.65245  0.92288  0.36457  1.0000
  C   C156      1.0  0.66147  0.88387  0.36803  1.0000
  H   H53       1.0  0.66394  0.94250  0.40320  1.0000
  H   H54       1.0  0.67953  0.87653  0.40771  1.0000
  C   C157      1.0  0.64683  0.15505  0.36102  1.0000
  C   C158      1.0  0.62331  0.14440  0.42004  1.0000
  C   C159      1.0  0.61421  0.10545  0.42950  1.0000
  C   C160      1.0  0.62858  0.07613  0.37705  1.0000
  H   H55       1.0  0.61228  0.16520  0.45650  1.0000
  N   N67       1.0  0.59052  0.09609  0.49030  1.0000
  O   O37       1.0  0.56628  0.11336  0.47103  1.0000
  O   O38       1.0  0.59755  0.10412  0.57002  1.0000
  C   C161      1.0  0.36434  0.85715  0.35195  1.0000
  C   C162      1.0  0.38817  0.86784  0.40985  1.0000
  C   C163      1.0  0.39712  0.90681  0.41935  1.0000
  C   C164      1.0  0.38237  0.93609  0.36771  1.0000
  H   H56       1.0  0.39942  0.84710  0.44594  1.0000
  N   N68       1.0  0.42091  0.91629  0.47978  1.0000
  O   O39       1.0  0.44539  0.89999  0.45878  1.0000
  O   O40       1.0  0.41439  0.90760  0.55951  1.0000
  C   C165      1.0  0.85754  0.58867  0.37331  1.0000
  C   C166      1.0  0.84858  0.62764  0.37884  1.0000
  H   H57       1.0  0.84684  0.56886  0.41339  1.0000
  H   H58       1.0  0.83128  0.63479  0.42150  1.0000
  C   C167      1.0  0.15202  0.42105  0.37163  1.0000
  C   C168      1.0  0.16096  0.38206  0.37736  1.0000
  H   H59       1.0  0.16304  0.44091  0.41080  1.0000
  H   H60       1.0  0.17847  0.37500  0.41931  1.0000
  C   C169      1.0  0.14681  0.65344  0.35388  1.0000
  C   C170      1.0  0.12384  0.64280  0.41482  1.0000
  C   C171      1.0  0.11477  0.60386  0.42501  1.0000
  C   C172      1.0  0.12875  0.57449  0.37190  1.0000
  H   H61       1.0  0.11308  0.66361  0.45196  1.0000
  N   N69       1.0  0.09151  0.59450  0.48723  1.0000
  O   O41       1.0  0.06721  0.61198  0.46967  1.0000
  O   O42       1.0  0.09917  0.60247  0.56647  1.0000
  C   C173      1.0  0.86407  0.35582  0.34401  1.0000
  C   C174      1.0  0.88727  0.36658  0.40413  1.0000
  C   C175      1.0  0.89606  0.40556  0.41456  1.0000
  C   C176      1.0  0.88169  0.43481  0.36201  1.0000
  H   H62       1.0  0.89826  0.34585  0.44097  1.0000
  N   N70       1.0  0.91936  0.41513  0.47653  1.0000
  O   O43       1.0  0.94404  0.39896  0.45702  1.0000
  O   O44       1.0  0.91228  0.40629  0.55575  1.0000
  C   C177      1.0  0.48878  0.03059  0.40647  1.0000
  C   C178      1.0  0.52049  0.03048  0.40743  1.0000
  H   H63       1.0  0.47744  0.04702  0.45284  1.0000
  H   H64       1.0  0.53151  0.04667  0.45478  1.0000
  C   C179      1.0  0.98861  0.53094  0.39704  1.0000
  C   C180      1.0  0.02031  0.53088  0.39854  1.0000
  H   H65       1.0  0.97724  0.54917  0.43955  1.0000
  H   H66       1.0  0.03120  0.54890  0.44239  1.0000
  C   C181      1.0  0.28749  0.25229  0.33727  1.0000
  C   C182      1.0  0.27467  0.28150  0.39121  1.0000
  C   C183      1.0  0.24279  0.28529  0.40116  1.0000
  C   C184      1.0  0.22271  0.25953  0.35526  1.0000
  H   H67       1.0  0.28863  0.29962  0.42652  1.0000
  N   N71       1.0  0.23095  0.31386  0.45980  1.0000
  O   O45       1.0  0.23903  0.30821  0.53978  1.0000
  O   O46       1.0  0.23890  0.34731  0.43670  1.0000
  C   C185      1.0  0.72223  0.76056  0.33994  1.0000
  C   C186      1.0  0.73444  0.72832  0.38503  1.0000
  C   C187      1.0  0.76619  0.72316  0.39477  1.0000
  C   C188      1.0  0.78692  0.75058  0.35713  1.0000
  H   H68       1.0  0.72008  0.70865  0.41392  1.0000
  N   N72       1.0  0.77704  0.69110  0.44475  1.0000
  O   O47       1.0  0.76849  0.69226  0.52533  1.0000
  O   O48       1.0  0.76883  0.65951  0.41078  1.0000
  C   C189      1.0  0.77620  0.22897  0.35471  1.0000
  C   C190      1.0  0.74472  0.22387  0.36335  1.0000
  H   H69       1.0  0.79025  0.21070  0.38929  1.0000
  H   H70       1.0  0.73731  0.20146  0.40256  1.0000
  C   C191      1.0  0.23456  0.78315  0.34458  1.0000
  C   C192      1.0  0.26596  0.78958  0.35010  1.0000
  H   H71       1.0  0.22035  0.80330  0.37225  1.0000
  H   H72       1.0  0.27302  0.81452  0.38059  1.0000
