data_image0
_chemical_formula_structural       C2HC3HNH2NO2C2HC3HNH2NO2C2HC3HNH2NO2C7H2NH2NO2C7H2NH2NO2C7H2NH2NO2NC18H12NC18H12NC18H12NC18H12C7H2NH2NO2C7H2NH2NO2C7H2NH2NO2C2HC3HNH2NO2C2HC3HNH2NO2C2HC3HNH2NO2
_chemical_formula_sum              "C144 H96 N28 O24"
_cell_length_a       50.6827
_cell_length_b       50.6826
_cell_length_c       14.7917
_cell_angle_alpha    90
_cell_angle_beta     90
_cell_angle_gamma    120

_space_group_name_H-M_alt    "P 1"
_space_group_IT_number       1

loop_
  _space_group_symop_operation_xyz
  'x, y, z'

loop_
  _atom_site_type_symbol
  _atom_site_label
  _atom_site_symmetry_multiplicity
  _atom_site_fract_x
  _atom_site_fract_y
  _atom_site_fract_z
  _atom_site_occupancy
  C   C1        1.0  0.25288  0.10872  0.29563  1.0000
  C   C2        1.0  0.28521  0.12610  0.29832  1.0000
  H   H1        1.0  0.29737  0.11869  0.26150  1.0000
  C   C3        1.0  0.13705  0.07044  0.34450  1.0000
  C   C4        1.0  0.15474  0.09518  0.28482  1.0000
  C   C5        1.0  0.18707  0.11040  0.28807  1.0000
  H   H2        1.0  0.19925  0.12811  0.24439  1.0000
  N   N1        1.0  0.23939  0.08330  0.24297  1.0000
  H   H3        1.0  0.25143  0.07698  0.20739  1.0000
  H   H4        1.0  0.21739  0.07070  0.23855  1.0000
  N   N2        1.0  0.14012  0.10538  0.22404  1.0000
  O   O1        1.0  0.14672  0.10349  0.14323  1.0000
  O   O2        1.0  0.14690  0.13241  0.23976  1.0000
  C   C6        1.0  0.90336  0.15072  0.30690  1.0000
  C   C7        1.0  0.88545  0.16514  0.30676  1.0000
  H   H5        1.0  0.89472  0.18675  0.28104  1.0000
  C   C8        1.0  0.93881  0.06958  0.33793  1.0000
  C   C9        1.0  0.93148  0.08002  0.25748  1.0000
  C   C10       1.0  0.91536  0.09624  0.26229  1.0000
  H   H6        1.0  0.91022  0.10320  0.20314  1.0000
  N   N3        1.0  0.93226  0.16658  0.27371  1.0000
  H   H7        1.0  0.94050  0.18715  0.25000  1.0000
  H   H8        1.0  0.94620  0.15873  0.27682  1.0000
  N   N4        1.0  0.94150  0.07553  0.17245  1.0000
  O   O3        1.0  0.95972  0.10038  0.13518  1.0000
  O   O4        1.0  0.91956  0.06043  0.11963  1.0000
  C   C11       1.0  0.85687  0.75552  0.31932  1.0000
  C   C12       1.0  0.84269  0.72321  0.31816  1.0000
  H   H9        1.0  0.82132  0.71085  0.29082  1.0000
  C   C13       1.0  0.93806  0.87209  0.35173  1.0000
  C   C14       1.0  0.92771  0.85420  0.27141  1.0000
  C   C15       1.0  0.91130  0.82189  0.27665  1.0000
  H   H10       1.0  0.90453  0.80971  0.21760  1.0000
  N   N5        1.0  0.84112  0.76849  0.28480  1.0000
  H   H11       1.0  0.82079  0.75614  0.25954  1.0000
  H   H12       1.0  0.84877  0.79024  0.28859  1.0000
  N   N6        1.0  0.93251  0.86853  0.18590  1.0000
  O   O5        1.0  0.90781  0.86206  0.14797  1.0000
  O   O6        1.0  0.94754  0.86136  0.13385  1.0000
  C   C16       1.0  0.52481  0.18594  0.31570  1.0000
  C   C17       1.0  0.54755  0.19508  0.24716  1.0000
  C   C18       1.0  0.57400  0.19285  0.26226  1.0000
  C   C19       1.0  0.57767  0.17822  0.33876  1.0000
  C   C20       1.0  0.60579  0.17758  0.34878  1.0000
  C   C21       1.0  0.61950  0.16941  0.27803  1.0000
  C   C22       1.0  0.64919  0.17379  0.29072  1.0000
  H   H13       1.0  0.65925  0.16984  0.23651  1.0000
  H   H14       1.0  0.59067  0.20151  0.21385  1.0000
  N   N7        1.0  0.60498  0.15665  0.19877  1.0000
  H   H15       1.0  0.58352  0.14977  0.19031  1.0000
  H   H16       1.0  0.61449  0.15049  0.15248  1.0000
  N   N8        1.0  0.54358  0.20504  0.16125  1.0000
  O   O7        1.0  0.56489  0.23132  0.14194  1.0000
  O   O8        1.0  0.54142  0.18705  0.09942  1.0000
  C   C23       1.0  0.82300  0.34208  0.31592  1.0000
  C   C24       1.0  0.81397  0.35584  0.24756  1.0000
  C   C25       1.0  0.81613  0.38446  0.26320  1.0000
  C   C26       1.0  0.83063  0.40260  0.34008  1.0000
  C   C27       1.0  0.83114  0.43128  0.35074  1.0000
  C   C28       1.0  0.83933  0.45334  0.28051  1.0000
  C   C29       1.0  0.83487  0.47857  0.29385  1.0000
  H   H17       1.0  0.83886  0.49274  0.24001  1.0000
  H   H18       1.0  0.80751  0.39256  0.21492  1.0000
  N   N9        1.0  0.85219  0.45183  0.20116  1.0000
  H   H19       1.0  0.85913  0.43732  0.19230  1.0000
  H   H20       1.0  0.85835  0.46761  0.15523  1.0000
  N   N10       1.0  0.80417  0.34213  0.16132  1.0000
  O   O9        1.0  0.77791  0.33718  0.14175  1.0000
  O   O10       1.0  0.82225  0.35812  0.09989  1.0000
  C   C30       1.0  0.66651  0.48417  0.31869  1.0000
  C   C31       1.0  0.65287  0.46154  0.24986  1.0000
  C   C32       1.0  0.62423  0.43505  0.26489  1.0000
  C   C33       1.0  0.60597  0.43125  0.34160  1.0000
  C   C34       1.0  0.57729  0.40306  0.35174  1.0000
  C   C35       1.0  0.55532  0.38930  0.28123  1.0000
  C   C36       1.0  0.53009  0.35958  0.29408  1.0000
  H   H21       1.0  0.51597  0.34950  0.24007  1.0000
  H   H22       1.0  0.61620  0.41843  0.21630  1.0000
  N   N11       1.0  0.55692  0.40381  0.20209  1.0000
  H   H23       1.0  0.57144  0.42529  0.19358  1.0000
  H   H24       1.0  0.54119  0.39427  0.15597  1.0000
  N   N12       1.0  0.66673  0.46564  0.16379  1.0000
  O   O11       1.0  0.67170  0.44436  0.14390  1.0000
  O   O12       1.0  0.65085  0.46788  0.10229  1.0000
  N   N13       1.0  0.00539  0.00413  0.34777  1.0000
  C   C37       1.0  0.03806  0.02058  0.34691  1.0000
  C   C38       1.0  0.98929  0.97136  0.35070  1.0000
  C   C39       1.0  0.98922  0.02069  0.34340  1.0000
  C   C40       1.0  0.99442  0.04341  0.40778  1.0000
  C   C41       1.0  0.97850  0.05963  0.40437  1.0000
  C   C42       1.0  0.95561  0.05323  0.33870  1.0000
  C   C43       1.0  0.94993  0.02972  0.27607  1.0000
  C   C44       1.0  0.96673  0.01430  0.27708  1.0000
  C   C45       1.0  0.05446  0.02844  0.26481  1.0000
  C   C46       1.0  0.08663  0.04413  0.26402  1.0000
  C   C47       1.0  0.10397  0.05385  0.34497  1.0000
  C   C48       1.0  0.08716  0.04591  0.42704  1.0000
  C   C49       1.0  0.05498  0.02932  0.42809  1.0000
  C   C50       1.0  0.99506  0.95409  0.28685  1.0000
  C   C51       1.0  0.97907  0.92194  0.28893  1.0000
  C   C52       1.0  0.95526  0.90521  0.35168  1.0000
  C   C53       1.0  0.94955  0.92278  0.41537  1.0000
  C   C54       1.0  0.96644  0.95499  0.41584  1.0000
  H   H25       1.0  0.09731  0.04799  0.20283  1.0000
  H   H26       1.0  0.04291  0.02219  0.20477  1.0000
  H   H27       1.0  0.04381  0.02396  0.48878  1.0000
  H   H28       1.0  0.09830  0.05243  0.48771  1.0000
  H   H29       1.0  0.01032  0.04869  0.45740  1.0000
  H   H30       1.0  0.98404  0.07651  0.45102  1.0000
  H   H31       1.0  0.01150  0.96487  0.23878  1.0000
  H   H32       1.0  0.98537  0.91084  0.24380  1.0000
  H   H33       1.0  0.93248  0.91220  0.46193  1.0000
  H   H34       1.0  0.96132  0.96659  0.46271  1.0000
  H   H35       1.0  0.96176  0.99753  0.23051  1.0000
  H   H36       1.0  0.93287  0.02298  0.22949  1.0000
  N   N14       1.0  0.43256  0.21876  0.34851  1.0000
  C   C55       1.0  0.44926  0.25004  0.37655  1.0000
  C   C56       1.0  0.40001  0.20215  0.34903  1.0000
  C   C57       1.0  0.45031  0.20531  0.31998  1.0000
  C   C58       1.0  0.47603  0.22202  0.26393  1.0000
  C   C59       1.0  0.50019  0.21584  0.26366  1.0000
  C   C60       1.0  0.49864  0.19056  0.31002  1.0000
  C   C61       1.0  0.47085  0.17177  0.35684  1.0000
  C   C62       1.0  0.44784  0.17960  0.36482  1.0000
  C   C63       1.0  0.44723  0.27270  0.32673  1.0000
  C   C64       1.0  0.47012  0.30360  0.33314  1.0000
  C   C65       1.0  0.49709  0.31308  0.38474  1.0000
  C   C66       1.0  0.49802  0.29007  0.43707  1.0000
  C   C67       1.0  0.47404  0.25963  0.43683  1.0000
  C   C68       1.0  0.38320  0.19343  0.26764  1.0000
  C   C69       1.0  0.35102  0.17737  0.26848  1.0000
  C   C70       1.0  0.33431  0.16934  0.35062  1.0000
  C   C71       1.0  0.35146  0.17779  0.43191  1.0000
  C   C72       1.0  0.38364  0.19403  0.43119  1.0000
  H   H37       1.0  0.46763  0.31890  0.29434  1.0000
  H   H38       1.0  0.43011  0.26653  0.28052  1.0000
  H   H39       1.0  0.47718  0.24370  0.47010  1.0000
  H   H40       1.0  0.51738  0.29442  0.47057  1.0000
  H   H41       1.0  0.47952  0.24172  0.23406  1.0000
  H   H42       1.0  0.52001  0.23195  0.23477  1.0000
  H   H43       1.0  0.39444  0.19910  0.20707  1.0000
  H   H44       1.0  0.33978  0.17198  0.20787  1.0000
  H   H45       1.0  0.34059  0.17182  0.49305  1.0000
  H   H46       1.0  0.39520  0.19977  0.49124  1.0000
  H   H47       1.0  0.42995  0.16732  0.40765  1.0000
  H   H48       1.0  0.46758  0.15283  0.39088  1.0000
  N   N15       1.0  0.79005  0.21683  0.34550  1.0000
  C   C73       1.0  0.75868  0.20222  0.37281  1.0000
  C   C74       1.0  0.80663  0.20083  0.34515  1.0000
  C   C75       1.0  0.80356  0.24819  0.31837  1.0000
  C   C76       1.0  0.78705  0.25737  0.26206  1.0000
  C   C77       1.0  0.79320  0.28769  0.26265  1.0000
  C   C78       1.0  0.81837  0.31129  0.30979  1.0000
  C   C79       1.0  0.83701  0.30212  0.35679  1.0000
  C   C80       1.0  0.82913  0.27125  0.36415  1.0000
  C   C81       1.0  0.73609  0.17775  0.32217  1.0000
  C   C82       1.0  0.70519  0.16975  0.32870  1.0000
  C   C83       1.0  0.69568  0.18705  0.38115  1.0000
  C   C84       1.0  0.71866  0.21075  0.43422  1.0000
  C   C85       1.0  0.74908  0.21717  0.43395  1.0000
  C   C86       1.0  0.81779  0.19543  0.26386  1.0000
  C   C87       1.0  0.83403  0.17948  0.26376  1.0000
  C   C88       1.0  0.83939  0.16794  0.34479  1.0000
  C   C89       1.0  0.82829  0.17364  0.42612  1.0000
  C   C90       1.0  0.81227  0.18980  0.42633  1.0000
  H   H49       1.0  0.68991  0.15210  0.28941  1.0000
  H   H50       1.0  0.74231  0.16697  0.27550  1.0000
  H   H51       1.0  0.76498  0.23606  0.46795  1.0000
  H   H52       1.0  0.71432  0.22565  0.46839  1.0000
  H   H53       1.0  0.76747  0.24125  0.23139  1.0000
  H   H54       1.0  0.77722  0.29150  0.23333  1.0000
  H   H55       1.0  0.81404  0.20310  0.20397  1.0000
  H   H56       1.0  0.84150  0.17583  0.20328  1.0000
  H   H57       1.0  0.83215  0.16635  0.48659  1.0000
  H   H58       1.0  0.80465  0.19352  0.48636  1.0000
  H   H59       1.0  0.84127  0.26548  0.40705  1.0000
  H   H60       1.0  0.85584  0.31766  0.39147  1.0000
  N   N16       1.0  0.79174  0.57620  0.35137  1.0000
  C   C91       1.0  0.80628  0.55935  0.37846  1.0000
  C   C92       1.0  0.80764  0.60877  0.35264  1.0000
  C   C93       1.0  0.76045  0.55843  0.32354  1.0000
  C   C94       1.0  0.75135  0.53290  0.26666  1.0000
  C   C95       1.0  0.72101  0.50879  0.26643  1.0000
  C   C96       1.0  0.69733  0.51030  0.31326  1.0000
  C   C97       1.0  0.70645  0.53800  0.36081  1.0000
  C   C98       1.0  0.73733  0.56090  0.36906  1.0000
  C   C99       1.0  0.83085  0.56142  0.32788  1.0000
  C   C100      1.0  0.83887  0.53852  0.33369  1.0000
  C   C101      1.0  0.82147  0.51151  0.38526  1.0000
  C   C102      1.0  0.79767  0.51059  0.43831  1.0000
  C   C103      1.0  0.79126  0.53460  0.43892  1.0000
  C   C104      1.0  0.81343  0.62575  0.27206  1.0000
  C   C105      1.0  0.82917  0.65794  0.27356  1.0000
  C   C106      1.0  0.84006  0.67439  0.35555  1.0000
  C   C107      1.0  0.83397  0.65716  0.43614  1.0000
  C   C108      1.0  0.81805  0.62498  0.43474  1.0000
  H   H61       1.0  0.85653  0.54100  0.29425  1.0000
  H   H62       1.0  0.84164  0.57855  0.28160  1.0000
  H   H63       1.0  0.77227  0.53150  0.47256  1.0000
  H   H64       1.0  0.78271  0.49122  0.47185  1.0000
  H   H65       1.0  0.76751  0.52946  0.23617  1.0000
  H   H66       1.0  0.71722  0.48905  0.23676  1.0000
  H   H67       1.0  0.80619  0.61465  0.21154  1.0000
  H   H68       1.0  0.83312  0.66937  0.21355  1.0000
  H   H69       1.0  0.84075  0.66798  0.49724  1.0000
  H   H70       1.0  0.81399  0.61331  0.49428  1.0000
  H   H71       1.0  0.74302  0.57870  0.41233  1.0000
  H   H72       1.0  0.69085  0.54125  0.39538  1.0000
  C   C109      1.0  0.30137  0.15287  0.35115  1.0000
  C   C110      1.0  0.28388  0.16241  0.40249  1.0000
  C   C111      1.0  0.25155  0.14517  0.40020  1.0000
  C   C112      1.0  0.23566  0.11840  0.34785  1.0000
  C   C113      1.0  0.20291  0.10209  0.34982  1.0000
  C   C114      1.0  0.18562  0.07765  0.41060  1.0000
  C   C115      1.0  0.15329  0.06240  0.40636  1.0000
  H   H73       1.0  0.14121  0.04443  0.44921  1.0000
  H   H74       1.0  0.23944  0.15253  0.43752  1.0000
  N   N17       1.0  0.19905  0.06837  0.47289  1.0000
  H   H75       1.0  0.22104  0.07819  0.47886  1.0000
  H   H76       1.0  0.18697  0.05173  0.51446  1.0000
  N   N18       1.0  0.29886  0.18975  0.45319  1.0000
  O   O13       1.0  0.29215  0.20910  0.42553  1.0000
  O   O14       1.0  0.29246  0.18502  0.53587  1.0000
  C   C116      1.0  0.85584  0.15153  0.34452  1.0000
  C   C117      1.0  0.84366  0.12184  0.38167  1.0000
  C   C118      1.0  0.86104  0.10691  0.37952  1.0000
  C   C119      1.0  0.89097  0.12083  0.34393  1.0000
  C   C120      1.0  0.90706  0.10397  0.34529  1.0000
  C   C121      1.0  0.91463  0.09404  0.42639  1.0000
  C   C122      1.0  0.92961  0.07672  0.42074  1.0000
  H   H77       1.0  0.93417  0.06925  0.47982  1.0000
  H   H78       1.0  0.85150  0.08531  0.40539  1.0000
  N   N19       1.0  0.90889  0.10129  0.51000  1.0000
  H   H79       1.0  0.90050  0.11464  0.51825  1.0000
  H   H80       1.0  0.91482  0.09487  0.56471  1.0000
  N   N20       1.0  0.81387  0.10710  0.41846  1.0000
  O   O15       1.0  0.79644  0.08296  0.37668  1.0000
  O   O16       1.0  0.81406  0.10086  0.50063  1.0000
  C   C123      1.0  0.85620  0.70725  0.35689  1.0000
  C   C124      1.0  0.88552  0.72480  0.39634  1.0000
  C   C125      1.0  0.90023  0.75710  0.39532  1.0000
  C   C126      1.0  0.88641  0.77306  0.35855  1.0000
  C   C127      1.0  0.90322  0.80599  0.35985  1.0000
  C   C128      1.0  0.91285  0.82363  0.44078  1.0000
  C   C129      1.0  0.93034  0.85592  0.43484  1.0000
  H   H81       1.0  0.93765  0.86807  0.49378  1.0000
  H   H82       1.0  0.92162  0.76920  0.42258  1.0000
  N   N21       1.0  0.90521  0.81073  0.52445  1.0000
  H   H83       1.0  0.89178  0.78900  0.53273  1.0000
  H   H84       1.0  0.91144  0.82314  0.57903  1.0000
  N   N22       1.0  0.90018  0.70981  0.43414  1.0000
  O   O17       1.0  0.92471  0.71690  0.39411  1.0000
  O   O18       1.0  0.90570  0.71591  0.51675  1.0000
  C   C130      1.0  0.55386  0.16665  0.40440  1.0000
  C   C131      1.0  0.52925  0.17226  0.39381  1.0000
  H   H85       1.0  0.51388  0.16569  0.44555  1.0000
  C   C132      1.0  0.66520  0.18293  0.37412  1.0000
  C   C133      1.0  0.65012  0.18856  0.44657  1.0000
  C   C134      1.0  0.62201  0.18754  0.43128  1.0000
  H   H86       1.0  0.61290  0.19367  0.48345  1.0000
  N   N23       1.0  0.55311  0.14947  0.47631  1.0000
  H   H87       1.0  0.53615  0.14105  0.51881  1.0000
  H   H88       1.0  0.56719  0.14183  0.48135  1.0000
  N   N24       1.0  0.66214  0.19373  0.53551  1.0000
  O   O19       1.0  0.66674  0.21869  0.56743  1.0000
  O   O20       1.0  0.64483  0.17271  0.58832  1.0000
  C   C135      1.0  0.84215  0.39024  0.40550  1.0000
  C   C136      1.0  0.83657  0.36005  0.39437  1.0000
  H   H89       1.0  0.84308  0.35116  0.44599  1.0000
  C   C137      1.0  0.82562  0.48519  0.37746  1.0000
  C   C138      1.0  0.81996  0.46431  0.44940  1.0000
  C   C139      1.0  0.82107  0.43729  0.43343  1.0000
  H   H90       1.0  0.81492  0.42193  0.48525  1.0000
  N   N25       1.0  0.85923  0.40653  0.47773  1.0000
  H   H91       1.0  0.86762  0.39792  0.52008  1.0000
  H   H92       1.0  0.86684  0.42823  0.48315  1.0000
  N   N26       1.0  0.81469  0.47091  0.53853  1.0000
  O   O21       1.0  0.78971  0.45043  0.57002  1.0000
  O   O22       1.0  0.83567  0.47452  0.59134  1.0000
  C   C140      1.0  0.61821  0.45499  0.40745  1.0000
  C   C141      1.0  0.64841  0.47962  0.39693  1.0000
  H   H93       1.0  0.65722  0.49490  0.44886  1.0000
  C   C142      1.0  0.52340  0.34357  0.37743  1.0000
  C   C143      1.0  0.54420  0.35865  0.44964  1.0000
  C   C144      1.0  0.57121  0.38682  0.43417  1.0000
  H   H94       1.0  0.58652  0.39595  0.48616  1.0000
  N   N27       1.0  0.60179  0.45563  0.47955  1.0000
  H   H95       1.0  0.61032  0.47255  0.52221  1.0000
  H   H96       1.0  0.58008  0.44153  0.48460  1.0000
  N   N28       1.0  0.53751  0.34657  0.53853  1.0000
  O   O23       1.0  0.55797  0.34204  0.56994  1.0000
  O   O24       1.0  0.53382  0.36382  0.59166  1.0000
