data_image0
_chemical_formula_structural       C2HC3N2HC2HC3N2HC2HC3N2HC2NC2HNCHC2NC2HNCHC2NC2HNCHNC18H12NC18H12NC18H12NC18H12C2NC2HNCHC2NC2HNCHC2NC2HNCHC2HC3N2HC2HC3N2HC2HC3N2H
_chemical_formula_sum              "C132 H72 N28"
_cell_length_a       50.2332
_cell_length_b       50.2332
_cell_length_c       14.8519
_cell_angle_alpha    90
_cell_angle_beta     90
_cell_angle_gamma    120

_space_group_name_H-M_alt    "P 1"
_space_group_IT_number       1

loop_
  _space_group_symop_operation_xyz
  'x, y, z'

loop_
  _atom_site_type_symbol
  _atom_site_label
  _atom_site_symmetry_multiplicity
  _atom_site_fract_x
  _atom_site_fract_y
  _atom_site_fract_z
  _atom_site_occupancy
  C   C1        1.0  0.24630  0.12303  0.26453  1.0000
  C   C2        1.0  0.27869  0.13882  0.26358  1.0000
  H   H1        1.0  0.28939  0.14219  0.20267  1.0000
  C   C3        1.0  0.13261  0.06751  0.34333  1.0000
  C   C4        1.0  0.15013  0.07593  0.26258  1.0000
  C   C5        1.0  0.18253  0.09180  0.26403  1.0000
  N   N1        1.0  0.19942  0.09917  0.18714  1.0000
  N   N2        1.0  0.22952  0.11379  0.18740  1.0000
  H   H2        1.0  0.13946  0.07095  0.20125  1.0000
  C   C6        1.0  0.89510  0.14128  0.28353  1.0000
  C   C7        1.0  0.87943  0.15801  0.28303  1.0000
  H   H3        1.0  0.88798  0.17739  0.24418  1.0000
  C   C8        1.0  0.93361  0.06635  0.33640  1.0000
  C   C9        1.0  0.94309  0.09304  0.28297  1.0000
  C   C10       1.0  0.92666  0.10904  0.28343  1.0000
  N   N3        1.0  0.93553  0.13464  0.23271  1.0000
  N   N4        1.0  0.92062  0.14984  0.23271  1.0000
  H   H4        1.0  0.96254  0.10152  0.24450  1.0000
  C   C11       1.0  0.86132  0.75558  0.29427  1.0000
  C   C12       1.0  0.84494  0.72318  0.29378  1.0000
  H   H5        1.0  0.82573  0.71215  0.25429  1.0000
  C   C13       1.0  0.93505  0.86930  0.34683  1.0000
  C   C14       1.0  0.90853  0.85176  0.29299  1.0000
  C   C15       1.0  0.89286  0.81936  0.29390  1.0000
  N   N5        1.0  0.86753  0.80237  0.24243  1.0000
  N   N6        1.0  0.85264  0.77226  0.24258  1.0000
  H   H6        1.0  0.89999  0.86247  0.25365  1.0000
  C   C16       1.0  0.66263  0.18270  0.35033  1.0000
  C   C17       1.0  0.64861  0.18239  0.26692  1.0000
  N   N7        1.0  0.62112  0.18143  0.26349  1.0000
  C   C18       1.0  0.60525  0.18080  0.33817  1.0000
  C   C19       1.0  0.57716  0.18076  0.33390  1.0000
  H   H7        1.0  0.65937  0.18417  0.20709  1.0000
  N   N8        1.0  0.56310  0.17979  0.25494  1.0000
  C   C20       1.0  0.53640  0.18040  0.25024  1.0000
  H   H8        1.0  0.52735  0.17915  0.18780  1.0000
  C   C21       1.0  0.82285  0.48281  0.35690  1.0000
  C   C22       1.0  0.82290  0.46936  0.27279  1.0000
  N   N9        1.0  0.82396  0.44291  0.26795  1.0000
  C   C23       1.0  0.82502  0.42756  0.34180  1.0000
  C   C24       1.0  0.82516  0.39958  0.33602  1.0000
  H   H9        1.0  0.82076  0.47842  0.21355  1.0000
  N   N10       1.0  0.82570  0.38671  0.25620  1.0000
  C   C25       1.0  0.82505  0.35941  0.24993  1.0000
  H   H10       1.0  0.82586  0.35171  0.18693  1.0000
  C   C26       1.0  0.52183  0.34100  0.35557  1.0000
  C   C27       1.0  0.53611  0.35460  0.27231  1.0000
  N   N11       1.0  0.56256  0.38213  0.26894  1.0000
  C   C28       1.0  0.57724  0.39842  0.34361  1.0000
  C   C29       1.0  0.60519  0.42659  0.33928  1.0000
  H   H11       1.0  0.52758  0.34355  0.21255  1.0000
  N   N12       1.0  0.61857  0.44018  0.26012  1.0000
  C   C30       1.0  0.64582  0.46691  0.25521  1.0000
  H   H12       1.0  0.65389  0.47555  0.19258  1.0000
  N   N13       1.0  0.00032  0.00118  0.34112  1.0000
  C   C31       1.0  0.03306  0.01767  0.34159  1.0000
  C   C32       1.0  0.98394  0.96851  0.34338  1.0000
  C   C33       1.0  0.98363  0.01715  0.33917  1.0000
  C   C34       1.0  0.96969  0.02008  0.41809  1.0000
  C   C35       1.0  0.95349  0.03627  0.41709  1.0000
  C   C36       1.0  0.95027  0.04987  0.33710  1.0000
  C   C37       1.0  0.96434  0.04659  0.25816  1.0000
  C   C38       1.0  0.98085  0.03068  0.25917  1.0000
  C   C39       1.0  0.04990  0.01392  0.27164  1.0000
  C   C40       1.0  0.08229  0.02988  0.27287  1.0000
  C   C41       1.0  0.09935  0.05086  0.34276  1.0000
  C   C42       1.0  0.08200  0.05461  0.41204  1.0000
  C   C43       1.0  0.04959  0.03814  0.41211  1.0000
  C   C44       1.0  0.97042  0.95151  0.26436  1.0000
  C   C45       1.0  0.95463  0.91913  0.26556  1.0000
  C   C46       1.0  0.95141  0.90245  0.34588  1.0000
  C   C47       1.0  0.96506  0.91993  0.42490  1.0000
  C   C48       1.0  0.98119  0.95235  0.42368  1.0000
  H   H13       1.0  0.09325  0.02541  0.22213  1.0000
  H   H14       1.0  0.03857  0.99908  0.21989  1.0000
  H   H15       1.0  0.03803  0.04146  0.46355  1.0000
  H   H16       1.0  0.09275  0.06989  0.46325  1.0000
  H   H17       1.0  0.97172  0.01080  0.47721  1.0000
  H   H18       1.0  0.94453  0.03851  0.47657  1.0000
  H   H19       1.0  0.97247  0.96274  0.20503  1.0000
  H   H20       1.0  0.94597  0.90785  0.20600  1.0000
  H   H21       1.0  0.96300  0.90920  0.48514  1.0000
  H   H22       1.0  0.99070  0.96421  0.48191  1.0000
  H   H23       1.0  0.99063  0.02871  0.20099  1.0000
  H   H24       1.0  0.96229  0.05537  0.19810  1.0000
  N   N14       1.0  0.42857  0.21533  0.34282  1.0000
  C   C49       1.0  0.44621  0.24777  0.35585  1.0000
  C   C50       1.0  0.39583  0.19902  0.34330  1.0000
  C   C51       1.0  0.44609  0.20043  0.32943  1.0000
  C   C52       1.0  0.46585  0.20832  0.25431  1.0000
  C   C53       1.0  0.48985  0.20153  0.25267  1.0000
  C   C54       1.0  0.49466  0.18591  0.32494  1.0000
  C   C55       1.0  0.47300  0.17587  0.39641  1.0000
  C   C56       1.0  0.44952  0.18340  0.39940  1.0000
  C   C57       1.0  0.44962  0.26820  0.28578  1.0000
  C   C58       1.0  0.47314  0.29919  0.28847  1.0000
  C   C59       1.0  0.49489  0.31083  0.35968  1.0000
  C   C60       1.0  0.49017  0.29040  0.43192  1.0000
  C   C61       1.0  0.46609  0.25964  0.43069  1.0000
  C   C62       1.0  0.37902  0.20023  0.26893  1.0000
  C   C63       1.0  0.34663  0.18442  0.26987  1.0000
  C   C64       1.0  0.32944  0.16594  0.34405  1.0000
  C   C65       1.0  0.34676  0.16469  0.41791  1.0000
  C   C66       1.0  0.37916  0.18115  0.41810  1.0000
  H   H25       1.0  0.47500  0.31279  0.23490  1.0000
  H   H26       1.0  0.43652  0.26021  0.22896  1.0000
  H   H27       1.0  0.46502  0.24515  0.48073  1.0000
  H   H28       1.0  0.50560  0.29686  0.48364  1.0000
  H   H29       1.0  0.46476  0.22175  0.20430  1.0000
  H   H30       1.0  0.50525  0.21044  0.20084  1.0000
  H   H31       1.0  0.39027  0.21268  0.21317  1.0000
  H   H32       1.0  0.33579  0.18706  0.21525  1.0000
  H   H33       1.0  0.33600  0.15134  0.47282  1.0000
  H   H34       1.0  0.39053  0.17999  0.47362  1.0000
  H   H35       1.0  0.43656  0.17841  0.45647  1.0000
  H   H36       1.0  0.47491  0.16416  0.45000  1.0000
  N   N15       1.0  0.78838  0.21608  0.33695  1.0000
  C   C67       1.0  0.75607  0.20139  0.35117  1.0000
  C   C68       1.0  0.80441  0.19950  0.33707  1.0000
  C   C69       1.0  0.80358  0.24845  0.32338  1.0000
  C   C70       1.0  0.79500  0.26059  0.25055  1.0000
  C   C71       1.0  0.80241  0.29156  0.25060  1.0000
  C   C72       1.0  0.81936  0.31177  0.32199  1.0000
  C   C73       1.0  0.83002  0.29976  0.39079  1.0000
  C   C74       1.0  0.82201  0.26858  0.39214  1.0000
  C   C75       1.0  0.73559  0.18306  0.28292  1.0000
  C   C76       1.0  0.70451  0.17537  0.28533  1.0000
  C   C77       1.0  0.69294  0.18632  0.35463  1.0000
  C   C78       1.0  0.71355  0.20328  0.42528  1.0000
  C   C79       1.0  0.74439  0.21030  0.42438  1.0000
  C   C80       1.0  0.81671  0.19519  0.25669  1.0000
  C   C81       1.0  0.83251  0.17860  0.25671  1.0000
  C   C82       1.0  0.83669  0.16579  0.33699  1.0000
  C   C83       1.0  0.82421  0.17038  0.41732  1.0000
  C   C84       1.0  0.80832  0.18690  0.41742  1.0000
  H   H37       1.0  0.69072  0.16273  0.23308  1.0000
  H   H38       1.0  0.74370  0.17708  0.22789  1.0000
  H   H39       1.0  0.75901  0.22460  0.47289  1.0000
  H   H40       1.0  0.70714  0.21289  0.47532  1.0000
  H   H41       1.0  0.78064  0.24623  0.20173  1.0000
  H   H42       1.0  0.79309  0.29840  0.20080  1.0000
  H   H43       1.0  0.81391  0.20391  0.19746  1.0000
  H   H44       1.0  0.84045  0.17545  0.19651  1.0000
  H   H45       1.0  0.82706  0.16219  0.47746  1.0000
  H   H46       1.0  0.79977  0.18992  0.47665  1.0000
  H   H47       1.0  0.82767  0.26013  0.44703  1.0000
  H   H48       1.0  0.84258  0.31325  0.44361  1.0000
  N   N16       1.0  0.78833  0.57430  0.34804  1.0000
  C   C85       1.0  0.80338  0.55700  0.36157  1.0000
  C   C86       1.0  0.80459  0.60691  0.34818  1.0000
  C   C87       1.0  0.75604  0.55684  0.33337  1.0000
  C   C88       1.0  0.74433  0.53633  0.25995  1.0000
  C   C89       1.0  0.71346  0.51257  0.25886  1.0000
  C   C90       1.0  0.69287  0.50889  0.32958  1.0000
  C   C91       1.0  0.70445  0.53136  0.39899  1.0000
  C   C92       1.0  0.73555  0.55470  0.40157  1.0000
  C   C93       1.0  0.82188  0.55534  0.29293  1.0000
  C   C94       1.0  0.82985  0.53214  0.29417  1.0000
  C   C95       1.0  0.81905  0.50937  0.36267  1.0000
  C   C96       1.0  0.80198  0.51255  0.43386  1.0000
  C   C97       1.0  0.79466  0.53616  0.43413  1.0000
  C   C98       1.0  0.80894  0.62350  0.26773  1.0000
  C   C99       1.0  0.82521  0.65590  0.26788  1.0000
  C   C100      1.0  0.83764  0.67292  0.34834  1.0000
  C   C101      1.0  0.83301  0.65587  0.42873  1.0000
  C   C102      1.0  0.81683  0.62345  0.42871  1.0000
  H   H49       1.0  0.84249  0.53127  0.24147  1.0000
  H   H50       1.0  0.82767  0.56957  0.23827  1.0000
  H   H51       1.0  0.78019  0.53611  0.48269  1.0000
  H   H52       1.0  0.79247  0.49629  0.48334  1.0000
  H   H53       1.0  0.75896  0.53665  0.21148  1.0000
  H   H54       1.0  0.70697  0.49659  0.20865  1.0000
  H   H55       1.0  0.80048  0.61198  0.20839  1.0000
  H   H56       1.0  0.82841  0.66697  0.20763  1.0000
  H   H57       1.0  0.84093  0.66692  0.48900  1.0000
  H   H58       1.0  0.81377  0.61189  0.48798  1.0000
  H   H59       1.0  0.74367  0.56868  0.45684  1.0000
  H   H60       1.0  0.69069  0.53017  0.45138  1.0000
  C   C103      1.0  0.29615  0.14930  0.34429  1.0000
  C   C104      1.0  0.27879  0.14247  0.42514  1.0000
  N   N17       1.0  0.24753  0.12670  0.42455  1.0000
  C   C105      1.0  0.23061  0.11662  0.34792  1.0000
  C   C106      1.0  0.19810  0.10029  0.34773  1.0000
  H   H61       1.0  0.28930  0.14980  0.48615  1.0000
  N   N18       1.0  0.18109  0.09212  0.42437  1.0000
  C   C107      1.0  0.14983  0.07636  0.42465  1.0000
  H   H62       1.0  0.13918  0.07060  0.48586  1.0000
  C   C108      1.0  0.85290  0.14890  0.33687  1.0000
  C   C109      1.0  0.84324  0.12224  0.39050  1.0000
  N   N19       1.0  0.85869  0.10642  0.38957  1.0000
  C   C110      1.0  0.88416  0.11482  0.33864  1.0000
  C   C111      1.0  0.90022  0.09836  0.33846  1.0000
  H   H63       1.0  0.82401  0.11391  0.42973  1.0000
  N   N20       1.0  0.89141  0.07273  0.38887  1.0000
  C   C112      1.0  0.90684  0.05689  0.38949  1.0000
  H   H64       1.0  0.89815  0.03755  0.42832  1.0000
  C   C113      1.0  0.85417  0.70603  0.34835  1.0000
  C   C114      1.0  0.88057  0.72330  0.40278  1.0000
  N   N21       1.0  0.89603  0.75457  0.40189  1.0000
  C   C115      1.0  0.88753  0.77139  0.35022  1.0000
  C   C116      1.0  0.90364  0.80391  0.34992  1.0000
  H   H65       1.0  0.88896  0.71260  0.44264  1.0000
  N   N22       1.0  0.92904  0.82106  0.40097  1.0000
  C   C117      1.0  0.94458  0.85234  0.40118  1.0000
  H   H66       1.0  0.96380  0.86324  0.44041  1.0000
  C   C118      1.0  0.61787  0.18120  0.42375  1.0000
  C   C119      1.0  0.64602  0.18155  0.42904  1.0000
  H   H67       1.0  0.65449  0.18140  0.49152  1.0000
  C   C120      1.0  0.52164  0.18274  0.32895  1.0000
  C   C121      1.0  0.53599  0.18352  0.41212  1.0000
  C   C122      1.0  0.56329  0.18217  0.41537  1.0000
  N   N23       1.0  0.57707  0.18272  0.49463  1.0000
  N   N24       1.0  0.60280  0.18210  0.49861  1.0000
  H   H68       1.0  0.52735  0.18621  0.47159  1.0000
  C   C123      1.0  0.82493  0.43953  0.42803  1.0000
  C   C124      1.0  0.82440  0.46722  0.43476  1.0000
  H   H69       1.0  0.82473  0.47567  0.49764  1.0000
  C   C125      1.0  0.82310  0.34210  0.32777  1.0000
  C   C126      1.0  0.82289  0.35549  0.41185  1.0000
  C   C127      1.0  0.82423  0.38413  0.41669  1.0000
  N   N25       1.0  0.82400  0.39715  0.49668  1.0000
  N   N26       1.0  0.82449  0.42342  0.50205  1.0000
  H   H70       1.0  0.82057  0.34398  0.47075  1.0000
  C   C128      1.0  0.56458  0.38620  0.42913  1.0000
  C   C129      1.0  0.53681  0.35798  0.43427  1.0000
  H   H71       1.0  0.52778  0.34982  0.49662  1.0000
  C   C130      1.0  0.66257  0.48217  0.33392  1.0000
  C   C131      1.0  0.64862  0.46840  0.41733  1.0000
  C   C132      1.0  0.62000  0.44103  0.42074  1.0000
  N   N27       1.0  0.60637  0.42763  0.50002  1.0000
  N   N28       1.0  0.58009  0.40180  0.50399  1.0000
  H   H72       1.0  0.65968  0.47752  0.47684  1.0000
