data_image0
_chemical_formula_structural       C2HC2H3N2C4H3CH3CHC4H3CH3CHC4NC4NH4N2C3H2CHC3H2CHC2HC2H3N2C4H3CH3CHC4H3CH3CHC4NC4NH4N2C3H2CHC3H2CHC2HC2H3N2C4H3CH3CHC4H3CH3CHC4NC4NH4N2C3H2CHC3H2CHC2HC2H3N2C4H3CH3CHC4H3CH3CHC4NC4NH4N2C3H2CHC3H2CH
_chemical_formula_sum              "C128 H112 N24"
_cell_length_a       31.4792
_cell_length_b       31.4792
_cell_length_c       14.9534
_cell_angle_alpha    90
_cell_angle_beta     90
_cell_angle_gamma    90

_space_group_name_H-M_alt    "P 1"
_space_group_IT_number       1

loop_
  _space_group_symop_operation_xyz
  'x, y, z'

loop_
  _atom_site_type_symbol
  _atom_site_label
  _atom_site_symmetry_multiplicity
  _atom_site_fract_x
  _atom_site_fract_y
  _atom_site_fract_z
  _atom_site_occupancy
  C   C1        1.0  0.48895  0.45131  0.31930  1.0000
  C   C2        1.0  0.45802  0.41879  0.32361  1.0000
  H   H1        1.0  0.01940  0.44124  0.31487  1.0000
  C   C3        1.0  0.03440  0.10441  0.32859  1.0000
  C   C4        1.0  0.00275  0.07257  0.32292  1.0000
  H   H2        1.0  0.47242  0.08306  0.31611  1.0000
  H   H3        1.0  0.10091  0.15235  0.36446  1.0000
  H   H4        1.0  0.39144  0.36905  0.34605  1.0000
  N   N1        1.0  0.02570  0.14636  0.31877  1.0000
  N   N2        1.0  0.46820  0.37688  0.31991  1.0000
  C   C5        1.0  0.00303  0.30821  0.30518  1.0000
  C   C6        1.0  0.03940  0.28317  0.28205  1.0000
  C   C7        1.0  0.03526  0.23797  0.27171  1.0000
  C   C8        1.0  0.08142  0.30480  0.26862  1.0000
  H   H5        1.0  0.08902  0.32403  0.32723  1.0000
  H   H6        1.0  0.07996  0.32528  0.20979  1.0000
  H   H7        1.0  0.10818  0.28331  0.26007  1.0000
  C   C9        1.0  0.06766  0.21477  0.21690  1.0000
  H   H8        1.0  0.05602  0.18502  0.18899  1.0000
  H   H9        1.0  0.09586  0.20836  0.25692  1.0000
  H   H10       1.0  0.57684  0.23377  0.15893  1.0000
  C   C10       1.0  0.00374  0.35333  0.30891  1.0000
  H   H11       1.0  0.03125  0.36941  0.29716  1.0000
  C   C11       1.0  0.19931  0.00486  0.31131  1.0000
  C   C12       1.0  0.22433  0.96945  0.28226  1.0000
  C   C13       1.0  0.26943  0.97416  0.27119  1.0000
  C   C14       1.0  0.20275  0.92796  0.26266  1.0000
  H   H12       1.0  0.18382  0.91822  0.32030  1.0000
  H   H13       1.0  0.22428  0.90166  0.24945  1.0000
  H   H14       1.0  0.18198  0.93144  0.20465  1.0000
  C   C15       1.0  0.29238  0.94393  0.21069  1.0000
  H   H15       1.0  0.32196  0.95663  0.18404  1.0000
  H   H16       1.0  0.27306  0.93686  0.15190  1.0000
  H   H17       1.0  0.29908  0.41437  0.24582  1.0000
  C   C16       1.0  0.15420  0.00391  0.31554  1.0000
  H   H18       1.0  0.13815  0.97673  0.30058  1.0000
  C   C17       1.0  0.47935  0.49563  0.32191  1.0000
  C   C18       1.0  0.41446  0.42967  0.33026  1.0000
  C   C19       1.0  0.40303  0.47321  0.32578  1.0000
  C   C20       1.0  0.43494  0.50489  0.32347  1.0000
  N   N3        1.0  0.38417  0.39888  0.34018  1.0000
  C   C21       1.0  0.01192  0.02814  0.32323  1.0000
  C   C22       1.0  0.05624  0.01845  0.32479  1.0000
  C   C23       1.0  0.08869  0.04936  0.33141  1.0000
  C   C24       1.0  0.07774  0.09289  0.33789  1.0000
  N   N4        1.0  0.10832  0.12308  0.35144  1.0000
  H   H19       1.0  0.13788  0.11564  0.36109  1.0000
  H   H20       1.0  0.35481  0.40597  0.35309  1.0000
  H   H21       1.0  0.42449  0.03539  0.32190  1.0000
  H   H22       1.0  0.06635  0.48794  0.32318  1.0000
  N   N5        1.0  0.13064  0.03929  0.32846  1.0000
  N   N6        1.0  0.36109  0.48231  0.31788  1.0000
  C   C25       1.0  0.49706  0.21696  0.29929  1.0000
  C   C26       1.0  0.46172  0.24239  0.32165  1.0000
  C   C27       1.0  0.46441  0.28676  0.32266  1.0000
  H   H23       1.0  0.43767  0.30309  0.34069  1.0000
  H   H24       1.0  0.43343  0.22884  0.34009  1.0000
  C   C28       1.0  0.49197  0.17239  0.30929  1.0000
  H   H25       1.0  0.46251  0.15969  0.32045  1.0000
  C   C29       1.0  0.29048  0.51142  0.30386  1.0000
  C   C30       1.0  0.26508  0.54580  0.33217  1.0000
  C   C31       1.0  0.22072  0.54289  0.33396  1.0000
  H   H26       1.0  0.20439  0.56890  0.35626  1.0000
  H   H27       1.0  0.27865  0.57347  0.35433  1.0000
  C   C32       1.0  0.33510  0.51631  0.31322  1.0000
  H   H28       1.0  0.34780  0.54537  0.32833  1.0000
  C   C33       1.0  0.48895  0.95131  0.31930  1.0000
  C   C34       1.0  0.45802  0.91879  0.32361  1.0000
  H   H29       1.0  0.01940  0.94124  0.31487  1.0000
  C   C35       1.0  0.03440  0.60442  0.32859  1.0000
  C   C36       1.0  0.00275  0.57257  0.32292  1.0000
  H   H30       1.0  0.47242  0.58306  0.31611  1.0000
  H   H31       1.0  0.10091  0.65234  0.36446  1.0000
  H   H32       1.0  0.39144  0.86905  0.34605  1.0000
  N   N7        1.0  0.02570  0.64636  0.31877  1.0000
  N   N8        1.0  0.46820  0.87688  0.31991  1.0000
  C   C37       1.0  0.00303  0.80821  0.30518  1.0000
  C   C38       1.0  0.03940  0.78317  0.28205  1.0000
  C   C39       1.0  0.03526  0.73797  0.27171  1.0000
  C   C40       1.0  0.08142  0.80480  0.26862  1.0000
  H   H33       1.0  0.08902  0.82403  0.32723  1.0000
  H   H34       1.0  0.07996  0.82528  0.20979  1.0000
  H   H35       1.0  0.10818  0.78331  0.26007  1.0000
  C   C41       1.0  0.06766  0.71477  0.21690  1.0000
  H   H36       1.0  0.05602  0.68502  0.18899  1.0000
  H   H37       1.0  0.09586  0.70836  0.25692  1.0000
  H   H38       1.0  0.57684  0.73377  0.15893  1.0000
  C   C42       1.0  0.00374  0.85333  0.30891  1.0000
  H   H39       1.0  0.03125  0.86941  0.29716  1.0000
  C   C43       1.0  0.19931  0.50486  0.31131  1.0000
  C   C44       1.0  0.22433  0.46945  0.28226  1.0000
  C   C45       1.0  0.26943  0.47416  0.27119  1.0000
  C   C46       1.0  0.20275  0.42796  0.26266  1.0000
  H   H40       1.0  0.18382  0.41822  0.32030  1.0000
  H   H41       1.0  0.22428  0.40166  0.24945  1.0000
  H   H42       1.0  0.18198  0.43144  0.20465  1.0000
  C   C47       1.0  0.29238  0.44393  0.21069  1.0000
  H   H43       1.0  0.32196  0.45663  0.18404  1.0000
  H   H44       1.0  0.27306  0.43686  0.15190  1.0000
  H   H45       1.0  0.29908  0.91437  0.24582  1.0000
  C   C48       1.0  0.15420  0.50391  0.31554  1.0000
  H   H46       1.0  0.13815  0.47673  0.30058  1.0000
  C   C49       1.0  0.47935  0.99563  0.32191  1.0000
  C   C50       1.0  0.41446  0.92967  0.33026  1.0000
  C   C51       1.0  0.40303  0.97321  0.32578  1.0000
  C   C52       1.0  0.43494  0.00489  0.32347  1.0000
  N   N9        1.0  0.38417  0.89888  0.34018  1.0000
  C   C53       1.0  0.01192  0.52814  0.32323  1.0000
  C   C54       1.0  0.05624  0.51845  0.32479  1.0000
  C   C55       1.0  0.08869  0.54936  0.33141  1.0000
  C   C56       1.0  0.07774  0.59289  0.33789  1.0000
  N   N10       1.0  0.10832  0.62308  0.35144  1.0000
  H   H47       1.0  0.13788  0.61564  0.36109  1.0000
  H   H48       1.0  0.35481  0.90597  0.35309  1.0000
  H   H49       1.0  0.42449  0.53539  0.32190  1.0000
  H   H50       1.0  0.06635  0.98794  0.32318  1.0000
  N   N11       1.0  0.13064  0.53929  0.32846  1.0000
  N   N12       1.0  0.36109  0.98231  0.31788  1.0000
  C   C57       1.0  0.49706  0.71696  0.29929  1.0000
  C   C58       1.0  0.46172  0.74239  0.32165  1.0000
  C   C59       1.0  0.46441  0.78675  0.32266  1.0000
  H   H51       1.0  0.43767  0.80309  0.34069  1.0000
  H   H52       1.0  0.43343  0.72884  0.34009  1.0000
  C   C60       1.0  0.49197  0.67239  0.30929  1.0000
  H   H53       1.0  0.46251  0.65969  0.32045  1.0000
  C   C61       1.0  0.29048  0.01142  0.30386  1.0000
  C   C62       1.0  0.26508  0.04580  0.33217  1.0000
  C   C63       1.0  0.22072  0.04289  0.33396  1.0000
  H   H54       1.0  0.20439  0.06890  0.35626  1.0000
  H   H55       1.0  0.27865  0.07347  0.35433  1.0000
  C   C64       1.0  0.33510  0.01631  0.31322  1.0000
  H   H56       1.0  0.34780  0.04537  0.32833  1.0000
  C   C65       1.0  0.98894  0.45131  0.31930  1.0000
  C   C66       1.0  0.95802  0.41879  0.32361  1.0000
  H   H57       1.0  0.51940  0.44124  0.31487  1.0000
  C   C67       1.0  0.53440  0.10441  0.32859  1.0000
  C   C68       1.0  0.50275  0.07257  0.32292  1.0000
  H   H58       1.0  0.97242  0.08306  0.31611  1.0000
  H   H59       1.0  0.60091  0.15235  0.36446  1.0000
  H   H60       1.0  0.89144  0.36905  0.34605  1.0000
  N   N13       1.0  0.52570  0.14636  0.31877  1.0000
  N   N14       1.0  0.96820  0.37688  0.31991  1.0000
  C   C69       1.0  0.50303  0.30821  0.30518  1.0000
  C   C70       1.0  0.53940  0.28317  0.28205  1.0000
  C   C71       1.0  0.53526  0.23797  0.27171  1.0000
  C   C72       1.0  0.58142  0.30480  0.26862  1.0000
  H   H61       1.0  0.58902  0.32403  0.32723  1.0000
  H   H62       1.0  0.57996  0.32528  0.20979  1.0000
  H   H63       1.0  0.60818  0.28331  0.26007  1.0000
  C   C73       1.0  0.56766  0.21477  0.21690  1.0000
  H   H64       1.0  0.55602  0.18502  0.18899  1.0000
  H   H65       1.0  0.59586  0.20836  0.25692  1.0000
  H   H66       1.0  0.07684  0.23377  0.15893  1.0000
  C   C74       1.0  0.50374  0.35333  0.30891  1.0000
  H   H67       1.0  0.53125  0.36941  0.29716  1.0000
  C   C75       1.0  0.69931  0.00486  0.31131  1.0000
  C   C76       1.0  0.72433  0.96945  0.28226  1.0000
  C   C77       1.0  0.76943  0.97416  0.27119  1.0000
  C   C78       1.0  0.70275  0.92796  0.26266  1.0000
  H   H68       1.0  0.68382  0.91822  0.32030  1.0000
  H   H69       1.0  0.72428  0.90166  0.24945  1.0000
  H   H70       1.0  0.68198  0.93144  0.20465  1.0000
  C   C79       1.0  0.79238  0.94393  0.21069  1.0000
  H   H71       1.0  0.82196  0.95663  0.18404  1.0000
  H   H72       1.0  0.77306  0.93686  0.15190  1.0000
  H   H73       1.0  0.79908  0.41437  0.24582  1.0000
  C   C80       1.0  0.65420  0.00391  0.31554  1.0000
  H   H74       1.0  0.63816  0.97673  0.30058  1.0000
  C   C81       1.0  0.97935  0.49563  0.32191  1.0000
  C   C82       1.0  0.91446  0.42967  0.33026  1.0000
  C   C83       1.0  0.90303  0.47321  0.32578  1.0000
  C   C84       1.0  0.93494  0.50489  0.32347  1.0000
  N   N15       1.0  0.88416  0.39888  0.34018  1.0000
  C   C85       1.0  0.51192  0.02814  0.32323  1.0000
  C   C86       1.0  0.55624  0.01845  0.32479  1.0000
  C   C87       1.0  0.58869  0.04936  0.33141  1.0000
  C   C88       1.0  0.57774  0.09289  0.33789  1.0000
  N   N16       1.0  0.60832  0.12308  0.35144  1.0000
  H   H75       1.0  0.63789  0.11564  0.36109  1.0000
  H   H76       1.0  0.85481  0.40597  0.35309  1.0000
  H   H77       1.0  0.92449  0.03539  0.32190  1.0000
  H   H78       1.0  0.56635  0.48794  0.32318  1.0000
  N   N17       1.0  0.63064  0.03929  0.32846  1.0000
  N   N18       1.0  0.86109  0.48231  0.31788  1.0000
  C   C89       1.0  0.99706  0.21696  0.29929  1.0000
  C   C90       1.0  0.96172  0.24239  0.32165  1.0000
  C   C91       1.0  0.96441  0.28676  0.32266  1.0000
  H   H79       1.0  0.93767  0.30309  0.34069  1.0000
  H   H80       1.0  0.93343  0.22884  0.34009  1.0000
  C   C92       1.0  0.99197  0.17239  0.30929  1.0000
  H   H81       1.0  0.96251  0.15969  0.32045  1.0000
  C   C93       1.0  0.79048  0.51142  0.30386  1.0000
  C   C94       1.0  0.76508  0.54580  0.33217  1.0000
  C   C95       1.0  0.72072  0.54289  0.33396  1.0000
  H   H82       1.0  0.70439  0.56890  0.35626  1.0000
  H   H83       1.0  0.77865  0.57347  0.35433  1.0000
  C   C96       1.0  0.83510  0.51631  0.31322  1.0000
  H   H84       1.0  0.84780  0.54537  0.32833  1.0000
  C   C97       1.0  0.98894  0.95131  0.31930  1.0000
  C   C98       1.0  0.95802  0.91879  0.32361  1.0000
  H   H85       1.0  0.51940  0.94124  0.31487  1.0000
  C   C99       1.0  0.53440  0.60442  0.32859  1.0000
  C   C100      1.0  0.50275  0.57257  0.32292  1.0000
  H   H86       1.0  0.97242  0.58306  0.31611  1.0000
  H   H87       1.0  0.60091  0.65234  0.36446  1.0000
  H   H88       1.0  0.89144  0.86905  0.34605  1.0000
  N   N19       1.0  0.52570  0.64636  0.31877  1.0000
  N   N20       1.0  0.96820  0.87688  0.31991  1.0000
  C   C101      1.0  0.50303  0.80821  0.30518  1.0000
  C   C102      1.0  0.53940  0.78317  0.28205  1.0000
  C   C103      1.0  0.53526  0.73797  0.27171  1.0000
  C   C104      1.0  0.58142  0.80480  0.26862  1.0000
  H   H89       1.0  0.58902  0.82403  0.32723  1.0000
  H   H90       1.0  0.57996  0.82528  0.20979  1.0000
  H   H91       1.0  0.60818  0.78331  0.26007  1.0000
  C   C105      1.0  0.56766  0.71477  0.21690  1.0000
  H   H92       1.0  0.55602  0.68502  0.18899  1.0000
  H   H93       1.0  0.59586  0.70836  0.25692  1.0000
  H   H94       1.0  0.07684  0.73377  0.15893  1.0000
  C   C106      1.0  0.50374  0.85333  0.30891  1.0000
  H   H95       1.0  0.53125  0.86941  0.29716  1.0000
  C   C107      1.0  0.69931  0.50486  0.31131  1.0000
  C   C108      1.0  0.72433  0.46945  0.28226  1.0000
  C   C109      1.0  0.76943  0.47416  0.27119  1.0000
  C   C110      1.0  0.70275  0.42796  0.26266  1.0000
  H   H96       1.0  0.68382  0.41822  0.32030  1.0000
  H   H97       1.0  0.72428  0.40166  0.24945  1.0000
  H   H98       1.0  0.68198  0.43144  0.20465  1.0000
  C   C111      1.0  0.79238  0.44393  0.21069  1.0000
  H   H99       1.0  0.82196  0.45663  0.18404  1.0000
  H   H100      1.0  0.77306  0.43686  0.15190  1.0000
  H   H101      1.0  0.79908  0.91437  0.24582  1.0000
  C   C112      1.0  0.65420  0.50391  0.31554  1.0000
  H   H102      1.0  0.63816  0.47673  0.30058  1.0000
  C   C113      1.0  0.97935  0.99563  0.32191  1.0000
  C   C114      1.0  0.91446  0.92967  0.33026  1.0000
  C   C115      1.0  0.90303  0.97321  0.32578  1.0000
  C   C116      1.0  0.93494  0.00489  0.32347  1.0000
  N   N21       1.0  0.88416  0.89888  0.34018  1.0000
  C   C117      1.0  0.51192  0.52814  0.32323  1.0000
  C   C118      1.0  0.55624  0.51845  0.32479  1.0000
  C   C119      1.0  0.58869  0.54936  0.33141  1.0000
  C   C120      1.0  0.57774  0.59289  0.33789  1.0000
  N   N22       1.0  0.60832  0.62308  0.35144  1.0000
  H   H103      1.0  0.63789  0.61564  0.36109  1.0000
  H   H104      1.0  0.85481  0.90597  0.35309  1.0000
  H   H105      1.0  0.92449  0.53539  0.32190  1.0000
  H   H106      1.0  0.56635  0.98794  0.32318  1.0000
  N   N23       1.0  0.63064  0.53929  0.32846  1.0000
  N   N24       1.0  0.86109  0.98231  0.31788  1.0000
  C   C121      1.0  0.99706  0.71696  0.29929  1.0000
  C   C122      1.0  0.96172  0.74239  0.32165  1.0000
  C   C123      1.0  0.96441  0.78675  0.32266  1.0000
  H   H107      1.0  0.93767  0.80309  0.34069  1.0000
  H   H108      1.0  0.93343  0.72884  0.34009  1.0000
  C   C124      1.0  0.99197  0.67239  0.30929  1.0000
  H   H109      1.0  0.96251  0.65969  0.32045  1.0000
  C   C125      1.0  0.79048  0.01142  0.30386  1.0000
  C   C126      1.0  0.76508  0.04580  0.33217  1.0000
  C   C127      1.0  0.72072  0.04289  0.33396  1.0000
  H   H110      1.0  0.70439  0.06890  0.35626  1.0000
  H   H111      1.0  0.77865  0.07347  0.35433  1.0000
  C   C128      1.0  0.83510  0.01631  0.31322  1.0000
  H   H112      1.0  0.84780  0.04537  0.32833  1.0000
