data_image0
_chemical_formula_structural       C8HC7HCH4C4O3C3H2NHC3H2NHC3H2NHC3H2NHC3H2NHC3H2NHOC8HC7HCH4C4O4C8HC7HCH4C4O4C3H2NHC3H2NHC3H2NHC3H2NHC3H2NHC3H2NH
_chemical_formula_sum              "C96 H54 O12 N12"
_cell_length_a       29.9919
_cell_length_b       29.9919
_cell_length_c       15.1742
_cell_angle_alpha    89.9992
_cell_angle_beta     90.0008
_cell_angle_gamma    120

_space_group_name_H-M_alt    "P 1"
_space_group_IT_number       1

loop_
  _space_group_symop_operation_xyz
  'x, y, z'

loop_
  _atom_site_type_symbol
  _atom_site_label
  _atom_site_symmetry_multiplicity
  _atom_site_fract_x
  _atom_site_fract_y
  _atom_site_fract_z
  _atom_site_occupancy
  C   C1        1.0  0.02071  0.52886  0.32187  1.0000
  C   C2        1.0  0.97323  0.48107  0.32130  1.0000
  C   C3        1.0  0.97338  0.43369  0.31747  1.0000
  C   C4        1.0  0.02075  0.43483  0.32184  1.0000
  C   C5        1.0  0.06810  0.48109  0.32625  1.0000
  C   C6        1.0  0.06821  0.52860  0.32242  1.0000
  C   C7        1.0  0.92704  0.48278  0.31931  1.0000
  C   C8        1.0  0.11437  0.57651  0.32445  1.0000
  H   H1        1.0  0.02077  0.40063  0.32182  1.0000
  C   C9        1.0  0.02068  0.57675  0.32188  1.0000
  C   C10       1.0  0.97318  0.57701  0.32238  1.0000
  C   C11       1.0  0.97328  0.62452  0.32625  1.0000
  C   C12       1.0  0.02063  0.67077  0.32190  1.0000
  C   C13       1.0  0.06801  0.67192  0.31749  1.0000
  C   C14       1.0  0.06816  0.62454  0.32137  1.0000
  C   C15       1.0  0.92702  0.52910  0.32429  1.0000
  H   H2        1.0  0.02062  0.70498  0.32193  1.0000
  C   C16       1.0  0.11435  0.62283  0.31950  1.0000
  H   H3        1.0  0.89184  0.52629  0.32827  1.0000
  H   H4        1.0  0.89188  0.45039  0.31516  1.0000
  H   H5        1.0  0.14951  0.65522  0.31547  1.0000
  H   H6        1.0  0.14954  0.57932  0.32862  1.0000
  C   C17       1.0  0.11274  0.47719  0.33824  1.0000
  C   C18       1.0  0.92874  0.38517  0.30535  1.0000
  C   C19       1.0  0.92863  0.62837  0.33840  1.0000
  C   C20       1.0  0.11266  0.72045  0.30543  1.0000
  O   O1        1.0  0.10877  0.43678  0.38531  1.0000
  O   O2        1.0  0.93277  0.34866  0.25862  1.0000
  O   O3        1.0  0.10851  0.75674  0.25821  1.0000
  C   C21       1.0  0.20173  0.50799  0.30467  1.0000
  C   C22       1.0  0.23445  0.51206  0.23456  1.0000
  C   C23       1.0  0.27916  0.50964  0.25143  1.0000
  H   H7        1.0  0.22339  0.51147  0.17057  1.0000
  H   H8        1.0  0.30079  0.51007  0.19899  1.0000
  N   N1        1.0  0.15521  0.50342  0.28689  1.0000
  H   H9        1.0  0.15023  0.51507  0.22947  1.0000
  C   C24       1.0  0.56563  0.77878  0.30473  1.0000
  C   C25       1.0  0.56164  0.80750  0.23464  1.0000
  C   C26       1.0  0.56385  0.85453  0.25151  1.0000
  H   H10       1.0  0.56195  0.79688  0.17064  1.0000
  H   H11       1.0  0.56331  0.87568  0.19907  1.0000
  N   N2        1.0  0.57013  0.73680  0.28691  1.0000
  H   H12       1.0  0.55850  0.72021  0.22946  1.0000
  C   C27       1.0  0.29465  0.87197  0.30475  1.0000
  C   C28       1.0  0.26593  0.83927  0.23467  1.0000
  C   C29       1.0  0.21891  0.79443  0.25155  1.0000
  H   H13       1.0  0.27656  0.85018  0.17067  1.0000
  H   H14       1.0  0.19781  0.77270  0.19911  1.0000
  N   N3        1.0  0.33665  0.91844  0.28692  1.0000
  H   H15       1.0  0.35323  0.92339  0.22947  1.0000
  C   C30       1.0  0.83968  0.59777  0.30473  1.0000
  C   C31       1.0  0.80700  0.59381  0.23462  1.0000
  C   C32       1.0  0.76220  0.59607  0.25149  1.0000
  H   H16       1.0  0.81801  0.59423  0.17065  1.0000
  H   H17       1.0  0.74057  0.59561  0.19904  1.0000
  N   N4        1.0  0.88618  0.60229  0.28695  1.0000
  H   H18       1.0  0.89112  0.59066  0.22948  1.0000
  C   C33       1.0  0.47580  0.32694  0.30476  1.0000
  C   C34       1.0  0.47997  0.29834  0.23467  1.0000
  C   C35       1.0  0.47764  0.25125  0.25155  1.0000
  H   H19       1.0  0.47942  0.30883  0.17067  1.0000
  H   H20       1.0  0.47816  0.23009  0.19911  1.0000
  N   N5        1.0  0.47117  0.36885  0.28693  1.0000
  H   H21       1.0  0.48284  0.38548  0.22952  1.0000
  C   C36       1.0  0.74667  0.23380  0.30475  1.0000
  C   C37       1.0  0.77539  0.26648  0.23465  1.0000
  C   C38       1.0  0.82243  0.31130  0.25152  1.0000
  H   H22       1.0  0.76478  0.25554  0.17066  1.0000
  H   H23       1.0  0.84359  0.33296  0.19908  1.0000
  N   N6        1.0  0.70472  0.18729  0.28695  1.0000
  H   H24       1.0  0.68812  0.18232  0.22951  1.0000
  O   O4        1.0  0.93265  0.66889  0.38518  1.0000
  C   C39       1.0  0.54459  0.57676  0.32183  1.0000
  C   C40       1.0  0.59238  0.57706  0.32136  1.0000
  C   C41       1.0  0.63977  0.62459  0.31746  1.0000
  C   C42       1.0  0.63863  0.67083  0.32182  1.0000
  C   C43       1.0  0.59238  0.67194  0.32624  1.0000
  C   C44       1.0  0.54487  0.62454  0.32231  1.0000
  C   C45       1.0  0.59066  0.52917  0.31944  1.0000
  C   C46       1.0  0.49695  0.62279  0.32422  1.0000
  H   H25       1.0  0.67284  0.70504  0.32180  1.0000
  C   C47       1.0  0.49670  0.52886  0.32183  1.0000
  C   C48       1.0  0.49642  0.48109  0.32242  1.0000
  C   C49       1.0  0.44890  0.43368  0.32626  1.0000
  C   C50       1.0  0.40265  0.43479  0.32183  1.0000
  C   C51       1.0  0.40152  0.48103  0.31741  1.0000
  C   C52       1.0  0.44891  0.52856  0.32124  1.0000
  C   C53       1.0  0.54433  0.48283  0.32443  1.0000
  H   H26       1.0  0.36845  0.40058  0.32182  1.0000
  C   C54       1.0  0.45063  0.57645  0.31922  1.0000
  H   H27       1.0  0.54713  0.45046  0.32856  1.0000
  H   H28       1.0  0.62304  0.52638  0.31543  1.0000
  H   H29       1.0  0.41825  0.57923  0.31513  1.0000
  H   H30       1.0  0.49415  0.65516  0.32829  1.0000
  C   C55       1.0  0.59624  0.72045  0.33830  1.0000
  C   C56       1.0  0.68829  0.62847  0.30534  1.0000
  C   C57       1.0  0.44504  0.38518  0.33834  1.0000
  C   C58       1.0  0.35298  0.47711  0.30531  1.0000
  O   O5        1.0  0.63666  0.75676  0.38552  1.0000
  O   O6        1.0  0.72478  0.66900  0.25856  1.0000
  O   O7        1.0  0.40451  0.34864  0.38505  1.0000
  O   O8        1.0  0.31659  0.43670  0.25820  1.0000
  C   C59       1.0  0.49677  0.05289  0.32184  1.0000
  C   C60       1.0  0.49650  0.10039  0.32132  1.0000
  C   C61       1.0  0.44898  0.10028  0.31744  1.0000
  C   C62       1.0  0.40273  0.05292  0.32184  1.0000
  C   C63       1.0  0.40160  0.00555  0.32628  1.0000
  C   C64       1.0  0.44898  0.00540  0.32234  1.0000
  C   C65       1.0  0.54441  0.14655  0.31936  1.0000
  C   C66       1.0  0.45070  0.95923  0.32425  1.0000
  H   H31       1.0  0.36853  0.05293  0.32185  1.0000
  C   C67       1.0  0.54466  0.05287  0.32185  1.0000
  C   C68       1.0  0.59245  0.10036  0.32240  1.0000
  C   C69       1.0  0.63983  0.10021  0.32632  1.0000
  C   C70       1.0  0.63870  0.05284  0.32190  1.0000
  C   C71       1.0  0.59245  0.00549  0.31745  1.0000
  C   C72       1.0  0.54493  0.00537  0.32130  1.0000
  C   C73       1.0  0.59073  0.14653  0.32437  1.0000
  H   H32       1.0  0.67290  0.05283  0.32193  1.0000
  C   C74       1.0  0.49702  0.95921  0.31924  1.0000
  H   H33       1.0  0.62311  0.18170  0.32844  1.0000
  H   H34       1.0  0.54722  0.18172  0.31526  1.0000
  H   H35       1.0  0.49422  0.92404  0.31514  1.0000
  H   H36       1.0  0.41831  0.92406  0.32823  1.0000
  C   C75       1.0  0.35310  0.96088  0.33838  1.0000
  C   C76       1.0  0.44508  0.14492  0.30547  1.0000
  C   C77       1.0  0.68835  0.14485  0.33840  1.0000
  C   C78       1.0  0.59631  0.96084  0.30541  1.0000
  O   O9        1.0  0.31671  0.96504  0.38528  1.0000
  O   O10       1.0  0.40472  0.14089  0.25817  1.0000
  O   O11       1.0  0.72485  0.14082  0.38517  1.0000
  O   O12       1.0  0.63686  0.96484  0.25872  1.0000
  C   C79       1.0  0.26615  0.51203  0.40901  1.0000
  C   C80       1.0  0.21910  0.50978  0.39215  1.0000
  C   C81       1.0  0.29477  0.50789  0.33892  1.0000
  H   H37       1.0  0.19795  0.51032  0.44459  1.0000
  H   H38       1.0  0.27669  0.51159  0.47301  1.0000
  N   N7        1.0  0.33666  0.50322  0.35674  1.0000
  H   H39       1.0  0.35333  0.51500  0.41410  1.0000
  C   C82       1.0  0.56155  0.83914  0.40910  1.0000
  C   C83       1.0  0.56388  0.79439  0.39221  1.0000
  C   C84       1.0  0.56562  0.87187  0.33900  1.0000
  H   H40       1.0  0.56336  0.77271  0.44465  1.0000
  H   H41       1.0  0.56207  0.85019  0.47307  1.0000
  N   N8        1.0  0.57015  0.91837  0.35679  1.0000
  H   H42       1.0  0.55853  0.92334  0.41424  1.0000
  C   C85       1.0  0.23422  0.80761  0.40912  1.0000
  C   C86       1.0  0.27906  0.85463  0.39224  1.0000
  C   C87       1.0  0.20156  0.77884  0.33903  1.0000
  H   H43       1.0  0.30075  0.87577  0.44468  1.0000
  H   H44       1.0  0.22329  0.79697  0.47311  1.0000
  N   N9        1.0  0.15510  0.73681  0.35684  1.0000
  H   H45       1.0  0.15018  0.72027  0.41431  1.0000
  C   C88       1.0  0.77526  0.59375  0.40906  1.0000
  C   C89       1.0  0.82231  0.59599  0.39221  1.0000
  C   C90       1.0  0.74661  0.59783  0.33897  1.0000
  H   H46       1.0  0.84345  0.59544  0.44465  1.0000
  H   H47       1.0  0.76471  0.59418  0.47307  1.0000
  N   N10       1.0  0.70466  0.60240  0.35678  1.0000
  H   H48       1.0  0.68806  0.59075  0.41422  1.0000
  C   C91       1.0  0.47987  0.26659  0.40913  1.0000
  C   C92       1.0  0.47755  0.31135  0.39225  1.0000
  C   C93       1.0  0.47585  0.23389  0.33903  1.0000
  H   H49       1.0  0.47800  0.33300  0.44469  1.0000
  H   H50       1.0  0.47940  0.25560  0.47313  1.0000
  N   N11       1.0  0.47129  0.18738  0.35683  1.0000
  H   H51       1.0  0.48292  0.18239  0.41427  1.0000
  C   C94       1.0  0.80703  0.29825  0.40911  1.0000
  C   C95       1.0  0.76226  0.25116  0.39223  1.0000
  C   C96       1.0  0.83977  0.32689  0.33900  1.0000
  H   H52       1.0  0.74059  0.23001  0.44467  1.0000
  H   H53       1.0  0.81808  0.30877  0.47309  1.0000
  N   N12       1.0  0.88631  0.36881  0.35682  1.0000
  H   H54       1.0  0.89121  0.38544  0.41422  1.0000
