data_image0
_chemical_formula_structural       C16H16C16H16C16H16C3H2NC2H2NC3H2NC3H2NC2H2NC3H2NC3NC3NC5NC5NC36H26C4H4C3NC3NC5NC5NC36H26C4H4C3NC3NC5NC5NC36H26C4H4C3N2O4NC4N2O4NC3N2O4NC3N2O4NC4N2O4NC3N2O4N
_chemical_formula_sum              "C252 H150 N36 O24"
_cell_length_a       67.5815
_cell_length_b       67.5814
_cell_length_c       14.8203
_cell_angle_alpha    89.717
_cell_angle_beta     90.283
_cell_angle_gamma    120

_space_group_name_H-M_alt    "P 1"
_space_group_IT_number       1

loop_
  _space_group_symop_operation_xyz
  'x, y, z'

loop_
  _atom_site_type_symbol
  _atom_site_label
  _atom_site_symmetry_multiplicity
  _atom_site_fract_x
  _atom_site_fract_y
  _atom_site_fract_z
  _atom_site_occupancy
  C   C1        1.0  0.94866  0.44905  0.29119  1.0000
  C   C2        1.0  0.96799  0.47112  0.28603  1.0000
  C   C3        1.0  0.91331  0.39860  0.32528  1.0000
  C   C4        1.0  0.89234  0.37784  0.33079  1.0000
  C   C5        1.0  0.94839  0.58949  0.28111  1.0000
  C   C6        1.0  0.96665  0.58504  0.27928  1.0000
  C   C7        1.0  0.88423  0.59044  0.32062  1.0000
  C   C8        1.0  0.90247  0.58592  0.31992  1.0000
  C   C9        1.0  0.11060  0.65839  0.28568  1.0000
  C   C10       1.0  0.12978  0.68056  0.29115  1.0000
  C   C11       1.0  0.18524  0.75210  0.32844  1.0000
  C   C12       1.0  0.16442  0.73120  0.32240  1.0000
  C   C13       1.0  0.11119  0.54502  0.27928  1.0000
  C   C14       1.0  0.12960  0.54079  0.28120  1.0000
  C   C15       1.0  0.17585  0.54497  0.32020  1.0000
  C   C16       1.0  0.19431  0.54078  0.32110  1.0000
  H   H1        1.0  0.20898  0.55193  0.28777  1.0000
  H   H2        1.0  0.17795  0.55930  0.28775  1.0000
  H   H3        1.0  0.13825  0.54256  0.22244  1.0000
  H   H4        1.0  0.10731  0.55020  0.22004  1.0000
  H   H5        1.0  0.10546  0.65079  0.22379  1.0000
  H   H6        1.0  0.13812  0.68831  0.23271  1.0000
  H   H7        1.0  0.97039  0.57988  0.22006  1.0000
  H   H8        1.0  0.93970  0.58787  0.22233  1.0000
  H   H9        1.0  0.90012  0.57154  0.28767  1.0000
  H   H10       1.0  0.86944  0.57945  0.28738  1.0000
  H   H11       1.0  0.97373  0.47844  0.22395  1.0000
  H   H12       1.0  0.94082  0.44106  0.23230  1.0000
  H   H13       1.0  0.88982  0.36469  0.28943  1.0000
  H   H14       1.0  0.92536  0.39970  0.28081  1.0000
  H   H15       1.0  0.15279  0.72966  0.27444  1.0000
  H   H16       1.0  0.18809  0.76489  0.28392  1.0000
  C   C17       1.0  0.65605  0.59318  0.29374  1.0000
  C   C18       1.0  0.63398  0.59049  0.28885  1.0000
  C   C19       1.0  0.70653  0.60825  0.32708  1.0000
  C   C20       1.0  0.72729  0.60802  0.33224  1.0000
  C   C21       1.0  0.51566  0.45251  0.28483  1.0000
  C   C22       1.0  0.52010  0.47522  0.28295  1.0000
  C   C23       1.0  0.51471  0.38732  0.32441  1.0000
  C   C24       1.0  0.51923  0.41008  0.32371  1.0000
  C   C25       1.0  0.44682  0.54581  0.28857  1.0000
  C   C26       1.0  0.42465  0.54282  0.29373  1.0000
  C   C27       1.0  0.35308  0.52663  0.32984  1.0000
  C   C28       1.0  0.37398  0.52673  0.32417  1.0000
  C   C29       1.0  0.56014  0.65981  0.28291  1.0000
  C   C30       1.0  0.56436  0.68244  0.28487  1.0000
  C   C31       1.0  0.56017  0.72442  0.32396  1.0000
  C   C32       1.0  0.56437  0.74706  0.32488  1.0000
  H   H17       1.0  0.55322  0.75066  0.29160  1.0000
  H   H18       1.0  0.54584  0.71226  0.29152  1.0000
  H   H19       1.0  0.56258  0.68944  0.22614  1.0000
  H   H20       1.0  0.55494  0.65087  0.22368  1.0000
  H   H21       1.0  0.45449  0.54847  0.22680  1.0000
  H   H22       1.0  0.41695  0.54356  0.23517  1.0000
  H   H23       1.0  0.52526  0.48424  0.22372  1.0000
  H   H24       1.0  0.51726  0.44555  0.22605  1.0000
  H   H25       1.0  0.53361  0.42218  0.29141  1.0000
  H   H26       1.0  0.52569  0.38359  0.29120  1.0000
  H   H27       1.0  0.62660  0.58898  0.22688  1.0000
  H   H28       1.0  0.66400  0.59347  0.23475  1.0000
  H   H29       1.0  0.74040  0.61872  0.29063  1.0000
  H   H30       1.0  0.70538  0.61927  0.28260  1.0000
  H   H31       1.0  0.37557  0.51677  0.27622  1.0000
  H   H32       1.0  0.34034  0.51683  0.28508  1.0000
  C   C33       1.0  0.51196  0.15648  0.29684  1.0000
  C   C34       1.0  0.51466  0.13712  0.29180  1.0000
  C   C35       1.0  0.49689  0.19180  0.33047  1.0000
  C   C36       1.0  0.49711  0.21277  0.33577  1.0000
  C   C37       1.0  0.65255  0.15667  0.28570  1.0000
  C   C38       1.0  0.62983  0.13841  0.28434  1.0000
  C   C39       1.0  0.71779  0.22086  0.32363  1.0000
  C   C40       1.0  0.69503  0.20263  0.32342  1.0000
  C   C41       1.0  0.55935  0.99459  0.29155  1.0000
  C   C42       1.0  0.56232  0.97539  0.29688  1.0000
  C   C43       1.0  0.57852  0.91995  0.33335  1.0000
  C   C44       1.0  0.57842  0.94077  0.32757  1.0000
  C   C45       1.0  0.44545  0.99404  0.28428  1.0000
  C   C46       1.0  0.42282  0.97563  0.28574  1.0000
  C   C47       1.0  0.38079  0.92934  0.32369  1.0000
  C   C48       1.0  0.35814  0.91089  0.32404  1.0000
  H   H33       1.0  0.35458  0.89625  0.29054  1.0000
  H   H34       1.0  0.39299  0.92728  0.29138  1.0000
  H   H35       1.0  0.41589  0.96704  0.22681  1.0000
  H   H36       1.0  0.45445  0.99798  0.22519  1.0000
  H   H37       1.0  0.55670  0.99971  0.22973  1.0000
  H   H38       1.0  0.56160  0.96707  0.23836  1.0000
  H   H39       1.0  0.62074  0.13460  0.22527  1.0000
  H   H40       1.0  0.65944  0.16529  0.22673  1.0000
  H   H41       1.0  0.68289  0.20494  0.29126  1.0000
  H   H42       1.0  0.72148  0.23560  0.29010  1.0000
  H   H43       1.0  0.51612  0.13137  0.22977  1.0000
  H   H44       1.0  0.51163  0.16426  0.23788  1.0000
  H   H45       1.0  0.48640  0.21528  0.29425  1.0000
  H   H46       1.0  0.48586  0.17973  0.28601  1.0000
  H   H47       1.0  0.58837  0.95241  0.27956  1.0000
  H   H48       1.0  0.58832  0.91711  0.28860  1.0000
  C   C49       1.0  0.29119  0.52783  0.36259  1.0000
  C   C50       1.0  0.28277  0.53265  0.28332  1.0000
  C   C51       1.0  0.26239  0.53349  0.28446  1.0000
  H   H49       1.0  0.25704  0.53766  0.22636  1.0000
  H   H50       1.0  0.29180  0.53626  0.22443  1.0000
  N   N1        1.0  0.31109  0.52805  0.35755  1.0000
  C   C52       1.0  0.57250  0.84372  0.28704  1.0000
  C   C53       1.0  0.57167  0.82252  0.28821  1.0000
  H   H51       1.0  0.56750  0.81311  0.23010  1.0000
  H   H52       1.0  0.56890  0.84928  0.22813  1.0000
  N   N2        1.0  0.57710  0.87649  0.36122  1.0000
  C   C54       1.0  0.24833  0.81397  0.36265  1.0000
  C   C55       1.0  0.26151  0.82252  0.28365  1.0000
  C   C56       1.0  0.28271  0.84289  0.28535  1.0000
  H   H53       1.0  0.29218  0.84832  0.22743  1.0000
  H   H54       1.0  0.25602  0.81357  0.22453  1.0000
  N   N3        1.0  0.22866  0.79408  0.35710  1.0000
  C   C57       1.0  0.78840  0.60502  0.36109  1.0000
  C   C58       1.0  0.79666  0.60026  0.28178  1.0000
  C   C59       1.0  0.81685  0.59909  0.28305  1.0000
  H   H55       1.0  0.82207  0.59496  0.22491  1.0000
  H   H56       1.0  0.78761  0.59693  0.22276  1.0000
  N   N4        1.0  0.76863  0.60507  0.35601  1.0000
  C   C60       1.0  0.50489  0.29002  0.28549  1.0000
  C   C61       1.0  0.50606  0.31139  0.28680  1.0000
  H   H57       1.0  0.51019  0.32087  0.22868  1.0000
  H   H58       1.0  0.50822  0.28444  0.22646  1.0000
  N   N5        1.0  0.50008  0.25702  0.35965  1.0000
  C   C62       1.0  0.82834  0.31673  0.36112  1.0000
  C   C63       1.0  0.81506  0.30835  0.28207  1.0000
  C   C64       1.0  0.79370  0.28816  0.28392  1.0000
  H   H59       1.0  0.78416  0.28285  0.22597  1.0000
  H   H60       1.0  0.82058  0.31730  0.22282  1.0000
  N   N6        1.0  0.84814  0.33650  0.35553  1.0000
  C   C65       1.0  0.05025  0.50814  0.35458  1.0000
  C   C66       1.0  0.02663  0.49648  0.35577  1.0000
  C   C67       1.0  0.01930  0.51248  0.35838  1.0000
  N   N7        1.0  0.03873  0.53316  0.35887  1.0000
  C   C68       1.0  0.05796  0.53155  0.35723  1.0000
  C   C69       1.0  0.08134  0.54916  0.35831  1.0000
  C   C70       1.0  0.08888  0.57294  0.36023  1.0000
  N   N8        1.0  0.07610  0.58325  0.35811  1.0000
  C   C71       1.0  0.08910  0.60629  0.36150  1.0000
  C   C72       1.0  0.11173  0.61106  0.36602  1.0000
  C   C73       1.0  0.11158  0.59058  0.36537  1.0000
  C   C74       1.0  0.08185  0.62276  0.36068  1.0000
  C   C75       1.0  0.05861  0.61736  0.35838  1.0000
  N   N9        1.0  0.03918  0.59668  0.35931  1.0000
  C   C76       1.0  0.01995  0.59829  0.35730  1.0000
  C   C77       1.0  0.02766  0.62171  0.35412  1.0000
  C   C78       1.0  0.05128  0.63336  0.35514  1.0000
  C   C79       1.0  0.99657  0.58069  0.35830  1.0000
  C   C80       1.0  0.98904  0.55690  0.36006  1.0000
  N   N10       1.0  0.00181  0.54660  0.35823  1.0000
  C   C81       1.0  0.98881  0.52355  0.36134  1.0000
  C   C82       1.0  0.96619  0.51877  0.36514  1.0000
  C   C83       1.0  0.96633  0.53926  0.36461  1.0000
  C   C84       1.0  0.99606  0.50708  0.36079  1.0000
  C   C85       1.0  0.97859  0.48356  0.36522  1.0000
  C   C86       1.0  0.96964  0.47321  0.44957  1.0000
  C   C87       1.0  0.95025  0.45123  0.45443  1.0000
  C   C88       1.0  0.93906  0.43883  0.37547  1.0000
  C   C89       1.0  0.91799  0.41745  0.38093  1.0000
  C   C90       1.0  0.87505  0.37515  0.39168  1.0000
  C   C91       1.0  0.87973  0.39407  0.44684  1.0000
  C   C92       1.0  0.90066  0.41469  0.44159  1.0000
  C   C93       1.0  0.97934  0.58711  0.35826  1.0000
  C   C94       1.0  0.97341  0.59396  0.43881  1.0000
  C   C95       1.0  0.95526  0.59859  0.44021  1.0000
  C   C96       1.0  0.94223  0.59627  0.36164  1.0000
  C   C97       1.0  0.92350  0.60061  0.36349  1.0000
  C   C98       1.0  0.92545  0.61998  0.40823  1.0000
  C   C99       1.0  0.90732  0.62464  0.40827  1.0000
  C   C100      1.0  0.88637  0.60998  0.36445  1.0000
  C   C101      1.0  0.09931  0.64628  0.36463  1.0000
  C   C102      1.0  0.13850  0.69123  0.37559  1.0000
  C   C103      1.0  0.12662  0.67913  0.45413  1.0000
  C   C104      1.0  0.10741  0.65703  0.44894  1.0000
  C   C105      1.0  0.15935  0.71279  0.38190  1.0000
  C   C106      1.0  0.17611  0.71617  0.44723  1.0000
  C   C107      1.0  0.19689  0.73695  0.45306  1.0000
  C   C108      1.0  0.20197  0.75539  0.39382  1.0000
  C   C109      1.0  0.09860  0.54276  0.35826  1.0000
  C   C110      1.0  0.10476  0.53594  0.43889  1.0000
  C   C111      1.0  0.12305  0.53152  0.44037  1.0000
  C   C112      1.0  0.13602  0.53406  0.36183  1.0000
  C   C113      1.0  0.15495  0.53003  0.36383  1.0000
  C   C114      1.0  0.19252  0.52133  0.36516  1.0000
  C   C115      1.0  0.17170  0.50642  0.40906  1.0000
  C   C116      1.0  0.15337  0.51077  0.40890  1.0000
  H   H61       1.0  0.16961  0.49207  0.44149  1.0000
  H   H62       1.0  0.13850  0.49923  0.44004  1.0000
  H   H63       1.0  0.12731  0.52715  0.50064  1.0000
  H   H64       1.0  0.09625  0.53461  0.49764  1.0000
  H   H65       1.0  0.06000  0.50047  0.35285  1.0000
  H   H66       1.0  0.01662  0.47908  0.35477  1.0000
  H   H67       1.0  0.03885  0.54743  0.36236  1.0000
  H   H68       1.0  0.03907  0.58240  0.36336  1.0000
  H   H69       1.0  0.12591  0.58912  0.36904  1.0000
  H   H70       1.0  0.12617  0.62675  0.36983  1.0000
  H   H71       1.0  0.09986  0.64851  0.50744  1.0000
  H   H72       1.0  0.13214  0.68615  0.51669  1.0000
  H   H73       1.0  0.06128  0.65076  0.35348  1.0000
  H   H74       1.0  0.01791  0.62937  0.35175  1.0000
  H   H75       1.0  0.95174  0.50308  0.36840  1.0000
  H   H76       1.0  0.95200  0.54071  0.36783  1.0000
  H   H77       1.0  0.98199  0.59518  0.49755  1.0000
  H   H78       1.0  0.95118  0.60300  0.50041  1.0000
  H   H79       1.0  0.90967  0.63903  0.44054  1.0000
  H   H80       1.0  0.94042  0.63133  0.43937  1.0000
  H   H81       1.0  0.90288  0.42796  0.48162  1.0000
  H   H82       1.0  0.86778  0.39311  0.49167  1.0000
  H   H83       1.0  0.94407  0.44453  0.51693  1.0000
  H   H84       1.0  0.97666  0.48198  0.50813  1.0000
  H   H85       1.0  0.17362  0.70325  0.49033  1.0000
  H   H86       1.0  0.20845  0.73835  0.50126  1.0000
  C   C117      1.0  0.85392  0.35505  0.39939  1.0000
  C   C118      1.0  0.86904  0.61546  0.36309  1.0000
  C   C119      1.0  0.22301  0.77558  0.40170  1.0000
  C   C120      1.0  0.21007  0.51616  0.36393  1.0000
  H   H87       1.0  0.84251  0.35503  0.44175  1.0000
  H   H88       1.0  0.20594  0.49981  0.36662  1.0000
  H   H89       1.0  0.23444  0.77571  0.44482  1.0000
  H   H90       1.0  0.87339  0.63186  0.36591  1.0000
  C   C121      1.0  0.59701  0.63557  0.35805  1.0000
  C   C122      1.0  0.60867  0.62361  0.35912  1.0000
  C   C123      1.0  0.59268  0.60028  0.36178  1.0000
  N   N11       1.0  0.57199  0.59902  0.36238  1.0000
  C   C124      1.0  0.57360  0.61986  0.36075  1.0000
  C   C125      1.0  0.55599  0.62563  0.36189  1.0000
  C   C126      1.0  0.53221  0.60938  0.36374  1.0000
  N   N12       1.0  0.52190  0.58630  0.36157  1.0000
  C   C127      1.0  0.49886  0.57625  0.36487  1.0000
  C   C128      1.0  0.49409  0.59409  0.36933  1.0000
  C   C129      1.0  0.51457  0.61443  0.36887  1.0000
  C   C130      1.0  0.48239  0.55253  0.36402  1.0000
  C   C131      1.0  0.48780  0.53470  0.36187  1.0000
  N   N13       1.0  0.50848  0.53595  0.36290  1.0000
  C   C132      1.0  0.50687  0.51512  0.36093  1.0000
  C   C133      1.0  0.48346  0.49941  0.35778  1.0000
  C   C134      1.0  0.47180  0.51137  0.35869  1.0000
  C   C135      1.0  0.52447  0.50934  0.36191  1.0000
  C   C136      1.0  0.54826  0.52558  0.36362  1.0000
  N   N14       1.0  0.55856  0.54867  0.36176  1.0000
  C   C137      1.0  0.58161  0.55871  0.36475  1.0000
  C   C138      1.0  0.58639  0.54086  0.36852  1.0000
  C   C139      1.0  0.56591  0.52052  0.36809  1.0000
  C   C140      1.0  0.59808  0.58243  0.36410  1.0000
  C   C141      1.0  0.62160  0.58847  0.36821  1.0000
  C   C142      1.0  0.63202  0.58973  0.45244  1.0000
  C   C143      1.0  0.65400  0.59231  0.45701  1.0000
  C   C144      1.0  0.66635  0.59368  0.37789  1.0000
  C   C145      1.0  0.68773  0.59398  0.38304  1.0000
  C   C146      1.0  0.73005  0.59333  0.39308  1.0000
  C   C147      1.0  0.71120  0.57901  0.44860  1.0000
  C   C148      1.0  0.69056  0.57932  0.44367  1.0000
  C   C149      1.0  0.51805  0.48568  0.36194  1.0000
  C   C150      1.0  0.51121  0.47274  0.44251  1.0000
  C   C151      1.0  0.50658  0.44996  0.44395  1.0000
  C   C152      1.0  0.50889  0.43940  0.36538  1.0000
  C   C153      1.0  0.50454  0.41633  0.36726  1.0000
  C   C154      1.0  0.48518  0.39882  0.41207  1.0000
  C   C155      1.0  0.48051  0.37603  0.41209  1.0000
  C   C156      1.0  0.49517  0.36983  0.36827  1.0000
  C   C157      1.0  0.45887  0.54646  0.36771  1.0000
  C   C158      1.0  0.41389  0.54064  0.37800  1.0000
  C   C159      1.0  0.42594  0.54068  0.45673  1.0000
  C   C160      1.0  0.44804  0.54358  0.45186  1.0000
  C   C161      1.0  0.39233  0.53991  0.38398  1.0000
  C   C162      1.0  0.38887  0.55311  0.44925  1.0000
  C   C163      1.0  0.36809  0.55310  0.45473  1.0000
  C   C164      1.0  0.34972  0.53991  0.39516  1.0000
  C   C165      1.0  0.56238  0.64928  0.36188  1.0000
  C   C166      1.0  0.56921  0.66208  0.44253  1.0000
  C   C167      1.0  0.57361  0.68479  0.44405  1.0000
  C   C168      1.0  0.57108  0.69539  0.36552  1.0000
  C   C169      1.0  0.57512  0.71836  0.36756  1.0000
  C   C170      1.0  0.58382  0.76463  0.36897  1.0000
  C   C171      1.0  0.59873  0.75862  0.41283  1.0000
  C   C172      1.0  0.59439  0.73594  0.41259  1.0000
  H   H91       1.0  0.61307  0.77079  0.44529  1.0000
  H   H92       1.0  0.60591  0.73253  0.44377  1.0000
  H   H93       1.0  0.57800  0.69329  0.50431  1.0000
  H   H94       1.0  0.57054  0.65478  0.50126  1.0000
  H   H95       1.0  0.60467  0.65299  0.35629  1.0000
  H   H96       1.0  0.62608  0.63101  0.35804  1.0000
  H   H97       1.0  0.55772  0.58486  0.36592  1.0000
  H   H98       1.0  0.52276  0.55011  0.36670  1.0000
  H   H99       1.0  0.51603  0.63021  0.37256  1.0000
  H   H100      1.0  0.47840  0.59283  0.37322  1.0000
  H   H101      1.0  0.45651  0.54442  0.51049  1.0000
  H   H102      1.0  0.41885  0.53901  0.51918  1.0000
  H   H103      1.0  0.45440  0.50398  0.35699  1.0000
  H   H104      1.0  0.47579  0.48200  0.35541  1.0000
  H   H105      1.0  0.60209  0.54210  0.37165  1.0000
  H   H106      1.0  0.56446  0.50473  0.37126  1.0000
  H   H107      1.0  0.50998  0.47998  0.50122  1.0000
  H   H108      1.0  0.50216  0.44134  0.50413  1.0000
  H   H109      1.0  0.46612  0.36392  0.44436  1.0000
  H   H110      1.0  0.47382  0.40237  0.44313  1.0000
  H   H111      1.0  0.67734  0.56821  0.48394  1.0000
  H   H112      1.0  0.71220  0.56795  0.49340  1.0000
  H   H113      1.0  0.66075  0.59272  0.51941  1.0000
  H   H114      1.0  0.62328  0.58783  0.51111  1.0000
  H   H115      1.0  0.40174  0.56342  0.49261  1.0000
  H   H116      1.0  0.36663  0.56311  0.50292  1.0000
  C   C173      1.0  0.75015  0.59228  0.40041  1.0000
  C   C174      1.0  0.48968  0.34702  0.36695  1.0000
  C   C175      1.0  0.32952  0.54074  0.40265  1.0000
  C   C176      1.0  0.58899  0.78735  0.36781  1.0000
  H   H117      1.0  0.75022  0.58083  0.44286  1.0000
  H   H118      1.0  0.60534  0.79956  0.37050  1.0000
  H   H119      1.0  0.32933  0.55189  0.44584  1.0000
  H   H120      1.0  0.47328  0.33497  0.36973  1.0000
  C   C177      1.0  0.46959  0.05490  0.36051  1.0000
  C   C178      1.0  0.48155  0.07852  0.36179  1.0000
  C   C179      1.0  0.50488  0.08585  0.36443  1.0000
  N   N15       1.0  0.50614  0.06642  0.36492  1.0000
  C   C180      1.0  0.48530  0.04719  0.36309  1.0000
  C   C181      1.0  0.47953  0.02381  0.36397  1.0000
  C   C182      1.0  0.49578  0.01628  0.36595  1.0000
  N   N16       1.0  0.51886  0.02905  0.36398  1.0000
  C   C183      1.0  0.52890  0.01605  0.36744  1.0000
  C   C184      1.0  0.51106  0.99343  0.37185  1.0000
  C   C185      1.0  0.49072  0.99357  0.37103  1.0000
  C   C186      1.0  0.55262  0.02330  0.36672  1.0000
  C   C187      1.0  0.57046  0.04655  0.36439  1.0000
  N   N17       1.0  0.56920  0.06597  0.36531  1.0000
  C   C188      1.0  0.59004  0.08521  0.36315  1.0000
  C   C189      1.0  0.60574  0.07750  0.35992  1.0000
  C   C190      1.0  0.59378  0.05388  0.36106  1.0000
  C   C191      1.0  0.59581  0.10858  0.36406  1.0000
  C   C192      1.0  0.57957  0.11612  0.36593  1.0000
  N   N18       1.0  0.55649  0.10334  0.36425  1.0000
  C   C193      1.0  0.54645  0.11634  0.36732  1.0000
  C   C194      1.0  0.56430  0.13897  0.37100  1.0000
  C   C195      1.0  0.58464  0.13883  0.37037  1.0000
  C   C196      1.0  0.52273  0.10909  0.36680  1.0000
  C   C197      1.0  0.51669  0.12656  0.37107  1.0000
  C   C198      1.0  0.51546  0.13553  0.45537  1.0000
  C   C199      1.0  0.51287  0.15492  0.46009  1.0000
  C   C200      1.0  0.51148  0.16608  0.38105  1.0000
  C   C201      1.0  0.51116  0.18714  0.38636  1.0000
  C   C202      1.0  0.51181  0.23008  0.39664  1.0000
  C   C203      1.0  0.52614  0.22542  0.45205  1.0000
  C   C204      1.0  0.52583  0.20449  0.44701  1.0000
  C   C205      1.0  0.61947  0.12582  0.36361  1.0000
  C   C206      1.0  0.63251  0.13184  0.44394  1.0000
  C   C207      1.0  0.65530  0.14998  0.44485  1.0000
  C   C208      1.0  0.66575  0.16292  0.36601  1.0000
  C   C209      1.0  0.68883  0.18165  0.36735  1.0000
  C   C210      1.0  0.70639  0.17976  0.41195  1.0000
  C   C211      1.0  0.72918  0.19787  0.41146  1.0000
  C   C212      1.0  0.73533  0.21877  0.36726  1.0000
  C   C213      1.0  0.55869  0.00584  0.37058  1.0000
  C   C214      1.0  0.56450  0.96666  0.38123  1.0000
  C   C215      1.0  0.56445  0.97852  0.45985  1.0000
  C   C216      1.0  0.56154  0.99772  0.45481  1.0000
  C   C217      1.0  0.56525  0.94582  0.38736  1.0000
  C   C218      1.0  0.55207  0.92905  0.45273  1.0000
  C   C219      1.0  0.55208  0.90826  0.45829  1.0000
  C   C220      1.0  0.56526  0.90320  0.39875  1.0000
  C   C221      1.0  0.45588  0.00656  0.36352  1.0000
  C   C222      1.0  0.44298  0.00031  0.44392  1.0000
  C   C223      1.0  0.42027  0.98202  0.44495  1.0000
  C   C224      1.0  0.40976  0.96912  0.36615  1.0000
  C   C225      1.0  0.38680  0.95019  0.36765  1.0000
  C   C226      1.0  0.34052  0.91263  0.36795  1.0000
  C   C227      1.0  0.34648  0.93340  0.41219  1.0000
  C   C228      1.0  0.36916  0.95173  0.41250  1.0000
  H   H121      1.0  0.33427  0.93545  0.44454  1.0000
  H   H122      1.0  0.37254  0.96656  0.44393  1.0000
  H   H123      1.0  0.41170  0.97768  0.50507  1.0000
  H   H124      1.0  0.45022  0.00874  0.50286  1.0000
  H   H125      1.0  0.45217  0.04515  0.35860  1.0000
  H   H126      1.0  0.47415  0.08853  0.36074  1.0000
  H   H127      1.0  0.52030  0.06631  0.36817  1.0000
  H   H128      1.0  0.55505  0.06609  0.36942  1.0000
  H   H129      1.0  0.47494  0.97925  0.37479  1.0000
  H   H130      1.0  0.51232  0.97899  0.37585  1.0000
  H   H131      1.0  0.56072  0.00527  0.51337  1.0000
  H   H132      1.0  0.56612  0.97300  0.52236  1.0000
  H   H133      1.0  0.60117  0.04387  0.35941  1.0000
  H   H134      1.0  0.62315  0.08725  0.35750  1.0000
  H   H135      1.0  0.56307  0.15342  0.37411  1.0000
  H   H136      1.0  0.60043  0.15315  0.37340  1.0000
  H   H137      1.0  0.62534  0.12332  0.50286  1.0000
  H   H138      1.0  0.66398  0.15413  0.50490  1.0000
  H   H139      1.0  0.74133  0.19556  0.44362  1.0000
  H   H140      1.0  0.70288  0.16482  0.44332  1.0000
  H   H141      1.0  0.53695  0.20229  0.48721  1.0000
  H   H142      1.0  0.53720  0.23739  0.49688  1.0000
  H   H143      1.0  0.51249  0.16112  0.52255  1.0000
  H   H144      1.0  0.51738  0.12856  0.51397  1.0000
  H   H145      1.0  0.54174  0.93152  0.49599  1.0000
  H   H146      1.0  0.54206  0.89669  0.50649  1.0000
  C   C229      1.0  0.51285  0.25122  0.40409  1.0000
  C   C230      1.0  0.75814  0.23610  0.36543  1.0000
  C   C231      1.0  0.56442  0.88215  0.40630  1.0000
  C   C232      1.0  0.31780  0.89509  0.36626  1.0000
  H   H147      1.0  0.52428  0.26263  0.44663  1.0000
  H   H148      1.0  0.30559  0.89921  0.36897  1.0000
  H   H149      1.0  0.55327  0.87071  0.44952  1.0000
  H   H150      1.0  0.77020  0.23174  0.36823  1.0000
  C   C233      1.0  0.24958  0.52892  0.36437  1.0000
  C   C234      1.0  0.25766  0.52371  0.44492  1.0000
  C   C235      1.0  0.27836  0.52292  0.44357  1.0000
  N   N19       1.0  0.24618  0.51963  0.52860  1.0000
  N   N20       1.0  0.28695  0.51717  0.52076  1.0000
  O   O1        1.0  0.24388  0.53613  0.55319  1.0000
  O   O2        1.0  0.29155  0.53113  0.58408  1.0000
  O   O3        1.0  0.22708  0.50165  0.52804  1.0000
  O   O4        1.0  0.27340  0.49731  0.54848  1.0000
  N   N21       1.0  0.23134  0.53165  0.36284  1.0000
  C   C236      1.0  0.57733  0.85681  0.36630  1.0000
  C   C237      1.0  0.57623  0.81409  0.36813  1.0000
  C   C238      1.0  0.58143  0.82721  0.44868  1.0000
  C   C239      1.0  0.58222  0.84871  0.44730  1.0000
  N   N22       1.0  0.58550  0.81963  0.53238  1.0000
  N   N23       1.0  0.58796  0.86287  0.52449  1.0000
  O   O5        1.0  0.56900  0.80077  0.55694  1.0000
  O   O6        1.0  0.57400  0.85338  0.58779  1.0000
  O   O7        1.0  0.60349  0.81851  0.53186  1.0000
  O   O8        1.0  0.60782  0.86913  0.55224  1.0000
  N   N24       1.0  0.57350  0.79313  0.36662  1.0000
  C   C240      1.0  0.29105  0.85558  0.36558  1.0000
  C   C241      1.0  0.27784  0.84737  0.44587  1.0000
  C   C242      1.0  0.25634  0.82667  0.44394  1.0000
  N   N25       1.0  0.28532  0.85872  0.52985  1.0000
  N   N26       1.0  0.24209  0.81797  0.52086  1.0000
  O   O9        1.0  0.30416  0.86099  0.55461  1.0000
  O   O10       1.0  0.25151  0.81327  0.58414  1.0000
  O   O11       1.0  0.28644  0.87782  0.52970  1.0000
  O   O12       1.0  0.23580  0.83147  0.54882  1.0000
  N   N27       1.0  0.31201  0.87381  0.36458  1.0000
  C   C243      1.0  0.82966  0.60323  0.36315  1.0000
  C   C244      1.0  0.82174  0.60837  0.44375  1.0000
  C   C245      1.0  0.80122  0.60951  0.44227  1.0000
  N   N28       1.0  0.83322  0.61204  0.52760  1.0000
  N   N29       1.0  0.79280  0.61518  0.51953  1.0000
  O   O13       1.0  0.83523  0.59529  0.55186  1.0000
  O   O14       1.0  0.78803  0.60098  0.58246  1.0000
  O   O15       1.0  0.85247  0.62985  0.52751  1.0000
  O   O16       1.0  0.80656  0.63489  0.54786  1.0000
  N   N30       1.0  0.84769  0.60018  0.36174  1.0000
  C   C246      1.0  0.50013  0.27683  0.36479  1.0000
  C   C247      1.0  0.50191  0.31986  0.36692  1.0000
  C   C248      1.0  0.49677  0.30663  0.44749  1.0000
  C   C249      1.0  0.49563  0.28497  0.44597  1.0000
  N   N31       1.0  0.49309  0.31424  0.53135  1.0000
  N   N32       1.0  0.48996  0.27071  0.52321  1.0000
  O   O17       1.0  0.50984  0.33295  0.55565  1.0000
  O   O18       1.0  0.50415  0.27999  0.58615  1.0000
  O   O19       1.0  0.47528  0.31568  0.53127  1.0000
  O   O20       1.0  0.47025  0.26469  0.55151  1.0000
  N   N33       1.0  0.50496  0.34095  0.36554  1.0000
  C   C250      1.0  0.78531  0.27548  0.36435  1.0000
  C   C251      1.0  0.79863  0.28352  0.44468  1.0000
  C   C252      1.0  0.82027  0.30404  0.44261  1.0000
  N   N34       1.0  0.79110  0.27218  0.52883  1.0000
  N   N35       1.0  0.83462  0.31258  0.51960  1.0000
  O   O21       1.0  0.77242  0.27021  0.55327  1.0000
  O   O22       1.0  0.82540  0.31746  0.58247  1.0000
  O   O23       1.0  0.78966  0.25293  0.52918  1.0000
  O   O24       1.0  0.84067  0.29887  0.54818  1.0000
  N   N36       1.0  0.76422  0.25744  0.36349  1.0000
