data_image0
_chemical_formula_structural       C14H12C7NC12H12C2NC3NC3NC15H14C2H2CH3C2H2CH3C2H2CH3C2H2CH3C2H2CH3C2H2CH3C3NC2NC5NC3NC17H14CNC2NC4NC18H14C2NC19H12C4NC2NHOC4NC2NHOC4NC2NHOC4NC2NHOC4NC2NHOC4NC2NHO
_chemical_formula_sum              "C186 H114 N24 O6"
_cell_length_a       41.8615
_cell_length_b       41.8614
_cell_length_c       15.0174
_cell_angle_alpha    90.0372
_cell_angle_beta     89.9628
_cell_angle_gamma    120

_space_group_name_H-M_alt    "P 1"
_space_group_IT_number       1

loop_
  _space_group_symop_operation_xyz
  'x, y, z'

loop_
  _atom_site_type_symbol
  _atom_site_label
  _atom_site_symmetry_multiplicity
  _atom_site_fract_x
  _atom_site_fract_y
  _atom_site_fract_z
  _atom_site_occupancy
  C   C1        1.0  0.94997  0.54706  0.35546  1.0000
  C   C2        1.0  0.09910  0.53855  0.33577  1.0000
  C   C3        1.0  0.10920  0.57560  0.35598  1.0000
  C   C4        1.0  0.14335  0.63608  0.38535  1.0000
  C   C5        1.0  0.14355  0.60327  0.38613  1.0000
  C   C6        1.0  0.16253  0.75102  0.26615  1.0000
  C   C7        1.0  0.13432  0.71387  0.26574  1.0000
  C   C8        1.0  0.12761  0.52896  0.33150  1.0000
  C   C9        1.0  0.18910  0.54288  0.28199  1.0000
  C   C10       1.0  0.15944  0.54962  0.27876  1.0000
  C   C11       1.0  0.92508  0.40884  0.26517  1.0000
  C   C12       1.0  0.89701  0.37164  0.26558  1.0000
  C   C13       1.0  0.89979  0.57290  0.27815  1.0000
  C   C14       1.0  0.86999  0.57941  0.28119  1.0000
  H   H1        1.0  0.84661  0.56123  0.24775  1.0000
  H   H2        1.0  0.89719  0.55130  0.24060  1.0000
  H   H3        1.0  0.99278  0.65776  0.26670  1.0000
  H   H4        1.0  0.93781  0.42059  0.20618  1.0000
  H   H5        1.0  0.89111  0.35762  0.20669  1.0000
  H   H6        1.0  0.06656  0.46507  0.26591  1.0000
  H   H7        1.0  0.16579  0.66105  0.40000  1.0000
  H   H8        1.0  0.16604  0.60093  0.40173  1.0000
  H   H9        1.0  0.16225  0.57129  0.24127  1.0000
  H   H10       1.0  0.21257  0.56095  0.24868  1.0000
  H   H11       1.0  0.12158  0.70215  0.20676  1.0000
  H   H12       1.0  0.16853  0.76502  0.20724  1.0000
  C   C15       1.0  0.44334  0.45381  0.28438  1.0000
  C   C16       1.0  0.44630  0.50721  0.32215  1.0000
  C   C17       1.0  0.54316  0.49484  0.35536  1.0000
  C   C18       1.0  0.61160  0.61313  0.32281  1.0000
  C   C19       1.0  0.61459  0.66654  0.28518  1.0000
  C   C20       1.0  0.55174  0.65246  0.33537  1.0000
  C   C21       1.0  0.51464  0.62549  0.35512  1.0000
  N   N1        1.0  0.49827  0.58872  0.34083  1.0000
  C   C22       1.0  0.45418  0.59910  0.38483  1.0000
  C   C23       1.0  0.48696  0.63214  0.38536  1.0000
  C   C24       1.0  0.33924  0.50335  0.26589  1.0000
  C   C25       1.0  0.37637  0.51224  0.26533  1.0000
  C   C26       1.0  0.56131  0.69056  0.33114  1.0000
  C   C27       1.0  0.57720  0.76610  0.33105  1.0000
  C   C28       1.0  0.54740  0.73812  0.28159  1.0000
  C   C29       1.0  0.54064  0.70171  0.27844  1.0000
  C   C30       1.0  0.68145  0.60803  0.26501  1.0000
  C   C31       1.0  0.71863  0.61711  0.26544  1.0000
  C   C32       1.0  0.51742  0.41883  0.27771  1.0000
  C   C33       1.0  0.51089  0.38252  0.28081  1.0000
  H   H13       1.0  0.52910  0.37730  0.24753  1.0000
  H   H14       1.0  0.53907  0.43782  0.24030  1.0000
  H   H15       1.0  0.43255  0.42687  0.26589  1.0000
  H   H16       1.0  0.66971  0.60900  0.20602  1.0000
  H   H17       1.0  0.73268  0.62522  0.20658  1.0000
  H   H18       1.0  0.62532  0.69337  0.26586  1.0000
  H   H19       1.0  0.42924  0.59652  0.40014  1.0000
  H   H20       1.0  0.48937  0.65693  0.40179  1.0000
  H   H21       1.0  0.51898  0.68284  0.24088  1.0000
  H   H22       1.0  0.52932  0.74349  0.24830  1.0000
  H   H23       1.0  0.38807  0.51123  0.20626  1.0000
  H   H24       1.0  0.32520  0.49533  0.20704  1.0000
  C   C34       1.0  0.63671  0.08147  0.28608  1.0000
  C   C35       1.0  0.58318  0.03105  0.32305  1.0000
  N   N2        1.0  0.58071  0.06178  0.33666  1.0000
  C   C36       1.0  0.62256  0.13027  0.33563  1.0000
  C   C37       1.0  0.59559  0.14039  0.35557  1.0000
  C   C38       1.0  0.47727  0.09056  0.32290  1.0000
  N   N3        1.0  0.47966  0.05981  0.33679  1.0000
  C   C39       1.0  0.42376  0.04013  0.28569  1.0000
  C   C40       1.0  0.43783  0.99130  0.33523  1.0000
  C   C41       1.0  0.46478  0.98113  0.35465  1.0000
  N   N4        1.0  0.50157  0.00153  0.34065  1.0000
  C   C42       1.0  0.49110  0.94697  0.38400  1.0000
  C   C43       1.0  0.45808  0.94674  0.38457  1.0000
  C   C44       1.0  0.56763  0.96662  0.34443  1.0000
  C   C45       1.0  0.58308  0.90696  0.34350  1.0000
  C   C46       1.0  0.58690  0.92779  0.26563  1.0000
  C   C47       1.0  0.57802  0.95604  0.26516  1.0000
  C   C48       1.0  0.39972  0.96280  0.33094  1.0000
  C   C49       1.0  0.32419  0.90314  0.33097  1.0000
  C   C50       1.0  0.35215  0.90135  0.28127  1.0000
  C   C51       1.0  0.38853  0.93103  0.27790  1.0000
  C   C52       1.0  0.48240  0.16545  0.26493  1.0000
  C   C53       1.0  0.47326  0.19351  0.26529  1.0000
  C   C54       1.0  0.67164  0.19054  0.27793  1.0000
  C   C55       1.0  0.73603  0.21876  0.33064  1.0000
  C   C56       1.0  0.70795  0.22034  0.28105  1.0000
  H   H25       1.0  0.71319  0.24371  0.24758  1.0000
  H   H26       1.0  0.65268  0.19316  0.24037  1.0000
  H   H27       1.0  0.66350  0.09758  0.26642  1.0000
  H   H28       1.0  0.56060  0.06151  0.36910  1.0000
  H   H29       1.0  0.49983  0.05998  0.36862  1.0000
  H   H30       1.0  0.48142  0.15268  0.20598  1.0000
  H   H31       1.0  0.46515  0.19939  0.20638  1.0000
  H   H32       1.0  0.39695  0.02404  0.26623  1.0000
  H   H33       1.0  0.49366  0.92460  0.39926  1.0000
  H   H34       1.0  0.43327  0.92436  0.40092  1.0000
  H   H35       1.0  0.40740  0.92823  0.24032  1.0000
  H   H36       1.0  0.34676  0.87790  0.24785  1.0000
  H   H37       1.0  0.57908  0.96878  0.20616  1.0000
  H   H38       1.0  0.59496  0.92179  0.20677  1.0000
  C   C57       1.0  0.24242  0.51668  0.26110  1.0000
  C   C58       1.0  0.27562  0.51617  0.26472  1.0000
  H   H39       1.0  0.29275  0.52655  0.21088  1.0000
  H   H40       1.0  0.23662  0.52536  0.20284  1.0000
  C   C59       1.0  0.27658  0.47473  0.02893  1.0000
  H   H41       1.0  0.28078  0.45935  0.08171  1.0000
  H   H42       1.0  0.26409  0.48978  0.05837  1.0000
  H   H43       1.0  0.30350  0.49427  0.00083  1.0000
  C   C60       1.0  0.57359  0.81762  0.26073  1.0000
  C   C61       1.0  0.57411  0.85134  0.26434  1.0000
  H   H44       1.0  0.56373  0.85806  0.21050  1.0000
  H   H45       1.0  0.56491  0.80312  0.20246  1.0000
  C   C62       1.0  0.61555  0.89381  0.02851  1.0000
  H   H46       1.0  0.63092  0.91341  0.08128  1.0000
  H   H47       1.0  0.60049  0.86628  0.05796  1.0000
  H   H48       1.0  0.59600  0.90116  0.00039  1.0000
  C   C63       1.0  0.27266  0.84792  0.26086  1.0000
  C   C64       1.0  0.23895  0.81471  0.26458  1.0000
  H   H49       1.0  0.23220  0.79757  0.21074  1.0000
  H   H50       1.0  0.28710  0.85374  0.20249  1.0000
  C   C65       1.0  0.19683  0.81384  0.02909  1.0000
  H   H51       1.0  0.17726  0.80962  0.08194  1.0000
  H   H52       1.0  0.22439  0.82643  0.05840  1.0000
  H   H53       1.0  0.18955  0.78692  0.00109  1.0000
  C   C66       1.0  0.81615  0.60492  0.26050  1.0000
  C   C67       1.0  0.78275  0.60506  0.26415  1.0000
  H   H54       1.0  0.76566  0.59454  0.21030  1.0000
  H   H55       1.0  0.82209  0.59636  0.20219  1.0000
  C   C68       1.0  0.78166  0.64634  0.02892  1.0000
  H   H56       1.0  0.77721  0.66161  0.08158  1.0000
  H   H57       1.0  0.79471  0.63184  0.05837  1.0000
  H   H58       1.0  0.75482  0.62632  0.00133  1.0000
  C   C69       1.0  0.48533  0.30315  0.26004  1.0000
  C   C70       1.0  0.48524  0.26965  0.26378  1.0000
  H   H59       1.0  0.49578  0.26306  0.20997  1.0000
  H   H60       1.0  0.49388  0.31762  0.20172  1.0000
  C   C71       1.0  0.44411  0.22744  0.02850  1.0000
  H   H61       1.0  0.42889  0.20779  0.08128  1.0000
  H   H62       1.0  0.45869  0.25502  0.05783  1.0000
  H   H63       1.0  0.46407  0.22055  0.00077  1.0000
  C   C72       1.0  0.78733  0.27414  0.26043  1.0000
  C   C73       1.0  0.82085  0.30754  0.26417  1.0000
  H   H64       1.0  0.82746  0.32464  0.21034  1.0000
  H   H65       1.0  0.77287  0.26821  0.20211  1.0000
  C   C74       1.0  0.86312  0.30870  0.02876  1.0000
  H   H66       1.0  0.88277  0.31313  0.08154  1.0000
  H   H67       1.0  0.83555  0.29580  0.05809  1.0000
  H   H68       1.0  0.87010  0.33555  0.00094  1.0000
  C   C75       1.0  0.00890  0.64716  0.28684  1.0000
  C   C76       1.0  0.04683  0.66732  0.29245  1.0000
  C   C77       1.0  0.05935  0.64410  0.32378  1.0000
  N   N5        1.0  0.02860  0.61095  0.33778  1.0000
  C   C78       1.0  0.99730  0.61179  0.31947  1.0000
  C   C79       1.0  0.96008  0.58416  0.33594  1.0000
  N   N6        1.0  0.97041  0.53072  0.34128  1.0000
  C   C80       1.0  0.95099  0.49411  0.35848  1.0000
  C   C81       1.0  0.91588  0.48657  0.38475  1.0000
  C   C82       1.0  0.91563  0.51936  0.38559  1.0000
  C   C83       1.0  0.96281  0.46810  0.34353  1.0000
  C   C84       1.0  0.99996  0.47873  0.32268  1.0000
  N   N7        1.0  0.03063  0.51200  0.33604  1.0000
  C   C85       1.0  0.06193  0.51107  0.31815  1.0000
  C   C86       1.0  0.05040  0.47582  0.28470  1.0000
  C   C87       1.0  0.01250  0.45556  0.29097  1.0000
  N   N8        1.0  0.08884  0.59201  0.34171  1.0000
  C   C88       1.0  0.10824  0.62859  0.35928  1.0000
  C   C89       1.0  0.09651  0.65464  0.34403  1.0000
  C   C90       1.0  0.12378  0.69297  0.34504  1.0000
  C   C91       1.0  0.14269  0.71027  0.42428  1.0000
  C   C92       1.0  0.17283  0.74649  0.42278  1.0000
  C   C93       1.0  0.18340  0.76809  0.34397  1.0000
  C   C94       1.0  0.12533  0.49912  0.38082  1.0000
  C   C95       1.0  0.15371  0.49040  0.37729  1.0000
  C   C96       1.0  0.18725  0.51307  0.33141  1.0000
  C   C97       1.0  0.93558  0.42976  0.34450  1.0000
  C   C98       1.0  0.87622  0.35450  0.34346  1.0000
  C   C99       1.0  0.88667  0.37613  0.42226  1.0000
  C   C100      1.0  0.91667  0.41242  0.42374  1.0000
  C   C101      1.0  0.93148  0.59364  0.33127  1.0000
  C   C102      1.0  0.93348  0.62336  0.38064  1.0000
  C   C103      1.0  0.90495  0.63186  0.37690  1.0000
  C   C104      1.0  0.87152  0.60906  0.33080  1.0000
  H   H69       1.0  0.90910  0.65500  0.40961  1.0000
  H   H70       1.0  0.95603  0.63942  0.41939  1.0000
  H   H71       1.0  0.06209  0.69469  0.27719  1.0000
  H   H72       1.0  0.02879  0.59094  0.36947  1.0000
  H   H73       1.0  0.03044  0.53162  0.36968  1.0000
  H   H74       1.0  0.89317  0.52171  0.40160  1.0000
  H   H75       1.0  0.89350  0.46161  0.39972  1.0000
  H   H76       1.0  0.92294  0.42702  0.48205  1.0000
  H   H77       1.0  0.87159  0.36646  0.47939  1.0000
  H   H78       1.0  0.99730  0.42812  0.27639  1.0000
  H   H79       1.0  0.10265  0.48310  0.41925  1.0000
  H   H80       1.0  0.14936  0.46718  0.40985  1.0000
  H   H81       1.0  0.18799  0.75607  0.47980  1.0000
  H   H82       1.0  0.13644  0.69566  0.48255  1.0000
  C   C105      1.0  0.42312  0.47150  0.29048  1.0000
  N   N9        1.0  0.47956  0.50979  0.33547  1.0000
  C   C106      1.0  0.47864  0.47756  0.31751  1.0000
  C   C107      1.0  0.50611  0.46787  0.33521  1.0000
  N   N10       1.0  0.55957  0.53158  0.34088  1.0000
  C   C108      1.0  0.59615  0.54875  0.35836  1.0000
  C   C109      1.0  0.60363  0.52118  0.38493  1.0000
  C   C110      1.0  0.57082  0.48817  0.38561  1.0000
  C   C111      1.0  0.62219  0.58656  0.34333  1.0000
  N   N11       1.0  0.57837  0.61062  0.33630  1.0000
  C   C112      1.0  0.57928  0.64280  0.31823  1.0000
  C   C113      1.0  0.63478  0.64881  0.29102  1.0000
  C   C114      1.0  0.46169  0.57152  0.35842  1.0000
  C   C115      1.0  0.43567  0.53370  0.34335  1.0000
  C   C116      1.0  0.39733  0.52259  0.34456  1.0000
  C   C117      1.0  0.38006  0.52418  0.42392  1.0000
  C   C118      1.0  0.34385  0.51813  0.42260  1.0000
  C   C119      1.0  0.32221  0.50714  0.34384  1.0000
  C   C120      1.0  0.59114  0.71815  0.38049  1.0000
  C   C121      1.0  0.59985  0.75524  0.37697  1.0000
  C   C122      1.0  0.66052  0.59765  0.34432  1.0000
  C   C123      1.0  0.73576  0.61350  0.34334  1.0000
  C   C124      1.0  0.71414  0.60243  0.42217  1.0000
  C   C125      1.0  0.67785  0.59614  0.42360  1.0000
  C   C126      1.0  0.49661  0.42980  0.33058  1.0000
  C   C127      1.0  0.46683  0.40211  0.37980  1.0000
  C   C128      1.0  0.45833  0.36508  0.37617  1.0000
  C   C129      1.0  0.48118  0.35443  0.33026  1.0000
  H   H83       1.0  0.43517  0.34610  0.40879  1.0000
  H   H84       1.0  0.45072  0.40863  0.41836  1.0000
  H   H85       1.0  0.39562  0.45920  0.27658  1.0000
  H   H86       1.0  0.49919  0.52958  0.36912  1.0000
  H   H87       1.0  0.55858  0.59058  0.36900  1.0000
  H   H88       1.0  0.56840  0.46336  0.40191  1.0000
  H   H89       1.0  0.62856  0.52375  0.40014  1.0000
  H   H90       1.0  0.66323  0.58780  0.48188  1.0000
  H   H91       1.0  0.72378  0.59697  0.47927  1.0000
  H   H92       1.0  0.66223  0.66103  0.27653  1.0000
  H   H93       1.0  0.60715  0.71151  0.41899  1.0000
  H   H94       1.0  0.62307  0.77413  0.40955  1.0000
  H   H95       1.0  0.33430  0.52370  0.47973  1.0000
  H   H96       1.0  0.39470  0.53254  0.48215  1.0000
  C   C130      1.0  0.61892  0.04354  0.29159  1.0000
  C   C131      1.0  0.61291  0.09307  0.31862  1.0000
  N   N12       1.0  0.55883  0.12002  0.34126  1.0000
  C   C132      1.0  0.54165  0.13944  0.35870  1.0000
  C   C133      1.0  0.56926  0.17457  0.38477  1.0000
  C   C134      1.0  0.60227  0.17478  0.38548  1.0000
  C   C135      1.0  0.50387  0.12772  0.34341  1.0000
  C   C136      1.0  0.44750  0.02852  0.31850  1.0000
  C   C137      1.0  0.44153  0.07806  0.29156  1.0000
  C   C138      1.0  0.51872  0.98208  0.35794  1.0000
  C   C139      1.0  0.55656  0.99388  0.34336  1.0000
  C   C140      1.0  0.56597  0.94772  0.42372  1.0000
  C   C141      1.0  0.57204  0.91757  0.42229  1.0000
  C   C142      1.0  0.37216  0.96502  0.38052  1.0000
  C   C143      1.0  0.33507  0.93665  0.37700  1.0000
  C   C144      1.0  0.49281  0.15499  0.34427  1.0000
  C   C145      1.0  0.47689  0.21433  0.34312  1.0000
  C   C146      1.0  0.48801  0.20389  0.42197  1.0000
  C   C147      1.0  0.49436  0.17393  0.42347  1.0000
  C   C148      1.0  0.66063  0.15884  0.33101  1.0000
  C   C149      1.0  0.68831  0.15681  0.38042  1.0000
  C   C150      1.0  0.72535  0.18532  0.37674  1.0000
  H   H97       1.0  0.74431  0.18115  0.40944  1.0000
  H   H98       1.0  0.68178  0.13424  0.41912  1.0000
  H   H99       1.0  0.63111  0.02829  0.27697  1.0000
  H   H100      1.0  0.62709  0.19721  0.40156  1.0000
  H   H101      1.0  0.56672  0.19698  0.39967  1.0000
  H   H102      1.0  0.50268  0.16769  0.48181  1.0000
  H   H103      1.0  0.49346  0.21903  0.47903  1.0000
  H   H104      1.0  0.42935  0.09331  0.27684  1.0000
  H   H105      1.0  0.37883  0.98765  0.41920  1.0000
  H   H106      1.0  0.31621  0.94098  0.40978  1.0000
  H   H107      1.0  0.56645  0.90245  0.47937  1.0000
  H   H108      1.0  0.55758  0.95399  0.48195  1.0000
  C   C151      1.0  0.28616  0.50375  0.34088  1.0000
  C   C152      1.0  0.26091  0.49101  0.41339  1.0000
  C   C153      1.0  0.22838  0.49401  0.41208  1.0000
  C   C154      1.0  0.21856  0.50731  0.33551  1.0000
  N   N13       1.0  0.20753  0.48393  0.48753  1.0000
  C   C155      1.0  0.21449  0.46979  0.56111  1.0000
  C   C156      1.0  0.24533  0.46498  0.56049  1.0000
  N   N14       1.0  0.26700  0.47574  0.48693  1.0000
  H   H109      1.0  0.19713  0.46209  0.61460  1.0000
  O   O1        1.0  0.25279  0.44876  0.62998  1.0000
  C   C157      1.0  0.58654  0.87434  0.34049  1.0000
  C   C158      1.0  0.59927  0.86186  0.41300  1.0000
  C   C159      1.0  0.59627  0.82633  0.41170  1.0000
  C   C160      1.0  0.58296  0.80317  0.33514  1.0000
  N   N15       1.0  0.60634  0.81559  0.48716  1.0000
  C   C161      1.0  0.62050  0.83675  0.56072  1.0000
  C   C162      1.0  0.62530  0.87238  0.56010  1.0000
  N   N16       1.0  0.61454  0.88325  0.48654  1.0000
  H   H110      1.0  0.62816  0.82709  0.61424  1.0000
  O   O2        1.0  0.64152  0.89611  0.62958  1.0000
  C   C163      1.0  0.21602  0.80416  0.34085  1.0000
  C   C164      1.0  0.22852  0.82943  0.41331  1.0000
  C   C165      1.0  0.26403  0.86197  0.41189  1.0000
  C   C166      1.0  0.28714  0.87180  0.33522  1.0000
  N   N17       1.0  0.27480  0.88284  0.48732  1.0000
  C   C167      1.0  0.25369  0.87589  0.56096  1.0000
  C   C168      1.0  0.21808  0.84501  0.56050  1.0000
  N   N18       1.0  0.20718  0.82333  0.48695  1.0000
  H   H111      1.0  0.26338  0.89323  0.61448  1.0000
  O   O3        1.0  0.19439  0.83753  0.63008  1.0000
  C   C169      1.0  0.77199  0.61729  0.34035  1.0000
  C   C170      1.0  0.79722  0.63026  0.41284  1.0000
  C   C171      1.0  0.82996  0.62764  0.41150  1.0000
  C   C172      1.0  0.84000  0.61448  0.33491  1.0000
  N   N19       1.0  0.85080  0.63791  0.48693  1.0000
  C   C173      1.0  0.84365  0.65196  0.56050  1.0000
  C   C174      1.0  0.81256  0.65635  0.55995  1.0000
  N   N20       1.0  0.79091  0.64538  0.48640  1.0000
  H   H112      1.0  0.86099  0.65978  0.61402  1.0000
  O   O4        1.0  0.80486  0.67244  0.62941  1.0000
  C   C175      1.0  0.47305  0.24673  0.34005  1.0000
  C   C176      1.0  0.46006  0.25903  0.41250  1.0000
  C   C177      1.0  0.46262  0.29436  0.41104  1.0000
  C   C178      1.0  0.47574  0.31748  0.33441  1.0000
  N   N21       1.0  0.45232  0.30497  0.48643  1.0000
  C   C179      1.0  0.43834  0.28385  0.56008  1.0000
  C   C180      1.0  0.43398  0.24839  0.55962  1.0000
  N   N22       1.0  0.44496  0.23766  0.48612  1.0000
  H   H113      1.0  0.43046  0.29338  0.61351  1.0000
  O   O5        1.0  0.41795  0.22466  0.62918  1.0000
  C   C181      1.0  0.84380  0.31828  0.34039  1.0000
  C   C182      1.0  0.83147  0.29303  0.41286  1.0000
  C   C183      1.0  0.79610  0.26029  0.41144  1.0000
  C   C184      1.0  0.77299  0.25026  0.33481  1.0000
  N   N23       1.0  0.78548  0.23944  0.48686  1.0000
  C   C185      1.0  0.80660  0.24659  0.56049  1.0000
  C   C186      1.0  0.84210  0.27766  0.55998  1.0000
  N   N24       1.0  0.85284  0.29933  0.48646  1.0000
  H   H114      1.0  0.79705  0.22924  0.61398  1.0000
  O   O6        1.0  0.86582  0.28536  0.62953  1.0000
