data_image0
_chemical_formula_structural       C18H17C4HC3NHCO2HC4HC3NHCO2HC3NC3NC5NC4NC35H25CNC2H2CO2HCNC2H2CO2H
_chemical_formula_sum              "C92 H54 N8 O8"
_cell_length_a       34.2175
_cell_length_b       34.2173
_cell_length_c       14.8804
_cell_angle_alpha    90
_cell_angle_beta     90
_cell_angle_gamma    89.9372

_space_group_name_H-M_alt    "P 1"
_space_group_IT_number       1

loop_
  _space_group_symop_operation_xyz
  'x, y, z'

loop_
  _atom_site_type_symbol
  _atom_site_label
  _atom_site_symmetry_multiplicity
  _atom_site_fract_x
  _atom_site_fract_y
  _atom_site_fract_z
  _atom_site_occupancy
  C   C1        1.0  0.08521  0.04186  0.34278  1.0000
  C   C2        1.0  0.99177  0.21121  0.26296  1.0000
  C   C3        1.0  0.99217  0.17004  0.26312  1.0000
  C   C4        1.0  0.96908  0.29574  0.30577  1.0000
  C   C5        1.0  0.96858  0.33690  0.30691  1.0000
  C   C6        1.0  0.00054  0.35840  0.34144  1.0000
  C   C7        1.0  0.20806  0.01022  0.26194  1.0000
  C   C8        1.0  0.16690  0.01051  0.26222  1.0000
  C   C9        1.0  0.33437  0.03090  0.29094  1.0000
  C   C10       1.0  0.29320  0.03127  0.29176  1.0000
  C   C11       1.0  0.00780  0.83912  0.26203  1.0000
  C   C12       1.0  0.00821  0.79796  0.26154  1.0000
  C   C13       1.0  0.03067  0.67185  0.29012  1.0000
  C   C14       1.0  0.03049  0.71301  0.29109  1.0000
  C   C15       1.0  0.83566  0.99485  0.26379  1.0000
  C   C16       1.0  0.79450  0.99417  0.26411  1.0000
  C   C17       1.0  0.71049  0.97037  0.30823  1.0000
  C   C18       1.0  0.66934  0.96933  0.30974  1.0000
  H   H1        1.0  0.65546  0.94532  0.28400  1.0000
  H   H2        1.0  0.72523  0.94671  0.28313  1.0000
  H   H3        1.0  0.78026  0.98736  0.20570  1.0000
  H   H4        1.0  0.85021  0.98811  0.20570  1.0000
  H   H5        1.0  0.01215  0.85385  0.20298  1.0000
  H   H6        1.0  0.01235  0.78400  0.20146  1.0000
  H   H7        1.0  0.08066  0.13611  0.33997  1.0000
  H   H8        1.0  0.15230  0.01510  0.20308  1.0000
  H   H9        1.0  0.22213  0.01415  0.20195  1.0000
  H   H10       1.0  0.27909  0.05289  0.25700  1.0000
  H   H11       1.0  0.34849  0.05228  0.25555  1.0000
  H   H12       1.0  0.98555  0.15542  0.20507  1.0000
  H   H13       1.0  0.98522  0.22538  0.20427  1.0000
  H   H14       1.0  0.94475  0.35111  0.28110  1.0000
  H   H15       1.0  0.94525  0.28133  0.28075  1.0000
  H   H16       1.0  0.05196  0.72740  0.25651  1.0000
  H   H17       1.0  0.05229  0.65798  0.25482  1.0000
  C   C19       1.0  0.00247  0.60797  0.33636  1.0000
  C   C20       1.0  0.00094  0.52471  0.33427  1.0000
  C   C21       1.0  0.00994  0.54538  0.25391  1.0000
  C   C22       1.0  0.01022  0.58682  0.25647  1.0000
  H   H18       1.0  0.01498  0.60192  0.19801  1.0000
  C   C23       1.0  0.99882  0.48310  0.34087  1.0000
  C   C24       1.0  0.99992  0.40011  0.34282  1.0000
  C   C25       1.0  0.03072  0.42233  0.30589  1.0000
  N   N1        1.0  0.02880  0.46193  0.30549  1.0000
  H   H19       1.0  0.05425  0.40908  0.27645  1.0000
  C   C26       1.0  0.01548  0.52617  0.17289  1.0000
  O   O1        1.0  0.04450  0.53433  0.12843  1.0000
  O   O2        1.0  0.98556  0.51482  0.13447  1.0000
  H   H20       1.0  0.98525  0.50468  0.07970  1.0000
  C   C27       1.0  0.39790  0.00196  0.33757  1.0000
  C   C28       1.0  0.48114  0.00008  0.33587  1.0000
  C   C29       1.0  0.46056  0.00884  0.25523  1.0000
  C   C30       1.0  0.41913  0.00931  0.25762  1.0000
  H   H21       1.0  0.40408  0.01399  0.19904  1.0000
  C   C31       1.0  0.52275  0.99822  0.34278  1.0000
  C   C32       1.0  0.60572  0.00003  0.34534  1.0000
  C   C33       1.0  0.58322  0.03061  0.30817  1.0000
  N   N2        1.0  0.54365  0.02836  0.30749  1.0000
  H   H22       1.0  0.59625  0.05425  0.27876  1.0000
  C   C34       1.0  0.47986  0.01401  0.17420  1.0000
  O   O3        1.0  0.47169  0.04282  0.12894  1.0000
  O   O4        1.0  0.49139  0.98393  0.13666  1.0000
  H   H23       1.0  0.50162  0.98337  0.08198  1.0000
  C   C35       1.0  0.90011  0.07713  0.34220  1.0000
  C   C36       1.0  0.92861  0.10565  0.34294  1.0000
  C   C37       1.0  0.96516  0.08737  0.34255  1.0000
  N   N3        1.0  0.95731  0.04847  0.34279  1.0000
  C   C38       1.0  0.91841  0.04060  0.34282  1.0000
  C   C39       1.0  0.89856  0.00400  0.34286  1.0000
  C   C40       1.0  0.91752  0.96698  0.34314  1.0000
  N   N4        1.0  0.95634  0.95940  0.34295  1.0000
  C   C41       1.0  0.96400  0.92060  0.34351  1.0000
  C   C42       1.0  0.92766  0.90205  0.34392  1.0000
  C   C43       1.0  0.89909  0.93057  0.34439  1.0000
  C   C44       1.0  0.00103  0.90171  0.34327  1.0000
  C   C45       1.0  0.03763  0.92153  0.34319  1.0000
  N   N5        1.0  0.04544  0.96041  0.34350  1.0000
  C   C46       1.0  0.08432  0.96824  0.34349  1.0000
  C   C47       1.0  0.10266  0.93172  0.34306  1.0000
  C   C48       1.0  0.07415  0.90320  0.34337  1.0000
  C   C49       1.0  0.10413  0.00485  0.34318  1.0000
  N   N6        1.0  0.04640  0.04950  0.34325  1.0000
  C   C50       1.0  0.03879  0.08831  0.34267  1.0000
  C   C51       1.0  0.07519  0.10676  0.34135  1.0000
  C   C52       1.0  0.10372  0.07822  0.34212  1.0000
  C   C53       1.0  0.00176  0.10724  0.34252  1.0000
  C   C54       1.0  0.00144  0.14909  0.34216  1.0000
  C   C55       1.0  0.01065  0.17039  0.42072  1.0000
  C   C56       1.0  0.01091  0.21155  0.41996  1.0000
  C   C57       1.0  0.00134  0.23274  0.34120  1.0000
  C   C58       1.0  0.00120  0.27454  0.34083  1.0000
  C   C59       1.0  0.03291  0.33728  0.37526  1.0000
  C   C60       1.0  0.03303  0.29610  0.37588  1.0000
  C   C61       1.0  0.14593  0.00448  0.34278  1.0000
  C   C62       1.0  0.16714  0.99799  0.42283  1.0000
  C   C63       1.0  0.20831  0.99745  0.42217  1.0000
  C   C64       1.0  0.22969  0.00364  0.34181  1.0000
  C   C65       1.0  0.27164  0.00330  0.34130  1.0000
  C   C66       1.0  0.29315  0.97500  0.39012  1.0000
  C   C67       1.0  0.33434  0.97461  0.38918  1.0000
  C   C68       1.0  0.35593  0.00250  0.33941  1.0000
  C   C69       1.0  0.00140  0.85991  0.34270  1.0000
  C   C70       1.0  0.00193  0.77616  0.34128  1.0000
  C   C71       1.0  0.99539  0.79737  0.42174  1.0000
  C   C72       1.0  0.99527  0.83854  0.42265  1.0000
  C   C73       1.0  0.00217  0.73423  0.34052  1.0000
  C   C74       1.0  0.97408  0.71237  0.38900  1.0000
  C   C75       1.0  0.97422  0.67119  0.38787  1.0000
  C   C76       1.0  0.00250  0.64994  0.33831  1.0000
  C   C77       1.0  0.85671  0.00427  0.34258  1.0000
  C   C78       1.0  0.83550  0.01342  0.42133  1.0000
  C   C79       1.0  0.79434  0.01341  0.42105  1.0000
  C   C80       1.0  0.77306  0.00354  0.34263  1.0000
  C   C81       1.0  0.73127  0.00280  0.34290  1.0000
  C   C82       1.0  0.64743  0.00105  0.34418  1.0000
  C   C83       1.0  0.66812  0.03371  0.37776  1.0000
  C   C84       1.0  0.70929  0.03436  0.37809  1.0000
  H   H24       1.0  0.65333  0.05708  0.40406  1.0000
  H   H25       1.0  0.72313  0.05857  0.40292  1.0000
  H   H26       1.0  0.77998  0.01976  0.47962  1.0000
  H   H27       1.0  0.84995  0.02014  0.47957  1.0000
  H   H28       1.0  0.87077  0.08277  0.34169  1.0000
  H   H29       1.0  0.92295  0.13498  0.34335  1.0000
  H   H30       1.0  0.97716  0.02863  0.34281  1.0000
  H   H31       1.0  0.02559  0.98025  0.34364  1.0000
  H   H32       1.0  0.86975  0.92507  0.34545  1.0000
  H   H33       1.0  0.92228  0.87268  0.34429  1.0000
  H   H34       1.0  0.99069  0.85284  0.48217  1.0000
  H   H35       1.0  0.99140  0.78298  0.48131  1.0000
  H   H36       1.0  0.07975  0.87386  0.34349  1.0000
  H   H37       1.0  0.13201  0.92612  0.34259  1.0000
  H   H38       1.0  0.13310  0.08361  0.34165  1.0000
  H   H39       1.0  0.15271  0.99367  0.48229  1.0000
  H   H40       1.0  0.22258  0.99325  0.48182  1.0000
  H   H41       1.0  0.34843  0.95293  0.42379  1.0000
  H   H42       1.0  0.27897  0.95364  0.42547  1.0000
  H   H43       1.0  0.05703  0.28193  0.40099  1.0000
  H   H44       1.0  0.05643  0.35176  0.40164  1.0000
  H   H45       1.0  0.01746  0.22598  0.47830  1.0000
  H   H46       1.0  0.01741  0.15603  0.47904  1.0000
  H   H47       1.0  0.95247  0.72630  0.42420  1.0000
  H   H48       1.0  0.95266  0.65684  0.42220  1.0000
  C   C85       1.0  0.99421  0.58548  0.41377  1.0000
  N   N7        1.0  0.99378  0.54590  0.40985  1.0000
  C   C86       1.0  0.96743  0.46243  0.38177  1.0000
  C   C87       1.0  0.96824  0.42100  0.38052  1.0000
  H   H49       1.0  0.94547  0.40573  0.40829  1.0000
  H   H50       1.0  0.98889  0.59847  0.47438  1.0000
  C   C88       1.0  0.93506  0.48163  0.41718  1.0000
  O   O5        1.0  0.92533  0.47425  0.49438  1.0000
  O   O6        1.0  0.90874  0.49439  0.36840  1.0000
  H   H51       1.0  0.91106  0.49866  0.30991  1.0000
  C   C89       1.0  0.42030  0.99374  0.41516  1.0000
  N   N8        1.0  0.45989  0.99318  0.41146  1.0000
  C   C90       1.0  0.54369  0.96702  0.38389  1.0000
  C   C91       1.0  0.58511  0.96817  0.38292  1.0000
  H   H52       1.0  0.60059  0.94555  0.41083  1.0000
  H   H53       1.0  0.40724  0.98869  0.47581  1.0000
  C   C92       1.0  0.52473  0.93454  0.41923  1.0000
  O   O7        1.0  0.53215  0.92486  0.49646  1.0000
  O   O8        1.0  0.51235  0.90808  0.37040  1.0000
  H   H54       1.0  0.50812  0.91035  0.31187  1.0000
