data_image0
_chemical_formula_structural       C3H2NHC3H2NHC3H2NHCNCNCNC18H12C3O3CNCNCNC18H12C3O3C3HOHNHC3HOHNHC3HOHNH
_chemical_formula_sum              "C66 H42 N12 O9"
_cell_length_a       36.788
_cell_length_b       36.7875
_cell_length_c       15.107
_cell_angle_alpha    90
_cell_angle_beta     90
_cell_angle_gamma    120

_space_group_name_H-M_alt    "P 1"
_space_group_IT_number       1

loop_
  _space_group_symop_operation_xyz
  'x, y, z'

loop_
  _atom_site_type_symbol
  _atom_site_label
  _atom_site_symmetry_multiplicity
  _atom_site_fract_x
  _atom_site_fract_y
  _atom_site_fract_z
  _atom_site_occupancy
  C   C1        1.0  0.46871  0.51443  0.31430  1.0000
  C   C2        1.0  0.48792  0.50613  0.24231  1.0000
  C   C3        1.0  0.51203  0.48677  0.25605  1.0000
  H   H1        1.0  0.52403  0.47949  0.20223  1.0000
  H   H2        1.0  0.48363  0.51328  0.17910  1.0000
  N   N1        1.0  0.44723  0.53520  0.29987  1.0000
  H   H3        1.0  0.45886  0.55742  0.25539  1.0000
  C   C4        1.0  0.47667  0.95249  0.31433  1.0000
  C   C5        1.0  0.48500  0.97998  0.24229  1.0000
  C   C6        1.0  0.50439  0.02345  0.25598  1.0000
  H   H4        1.0  0.51169  0.04274  0.20215  1.0000
  H   H5        1.0  0.47785  0.96852  0.17910  1.0000
  N   N2        1.0  0.45590  0.91024  0.29993  1.0000
  H   H6        1.0  0.43367  0.89963  0.25545  1.0000
  C   C7        1.0  0.03864  0.52245  0.31427  1.0000
  C   C8        1.0  0.01114  0.50327  0.24225  1.0000
  C   C9        1.0  0.96768  0.47916  0.25597  1.0000
  H   H7        1.0  0.94839  0.46717  0.20215  1.0000
  H   H8        1.0  0.02259  0.50757  0.17905  1.0000
  N   N3        1.0  0.08089  0.54395  0.29983  1.0000
  H   H9        1.0  0.09149  0.53231  0.25541  1.0000
  C   C10       1.0  0.28531  0.64734  0.31707  1.0000
  N   N4        1.0  0.30184  0.62158  0.31730  1.0000
  C   C11       1.0  0.34378  0.63618  0.31706  1.0000
  N   N5        1.0  0.36954  0.67847  0.31731  1.0000
  C   C12       1.0  0.35495  0.70582  0.31707  1.0000
  N   N6        1.0  0.31266  0.68928  0.31732  1.0000
  C   C13       1.0  0.36010  0.60843  0.32014  1.0000
  C   C14       1.0  0.33328  0.56429  0.32181  1.0000
  C   C15       1.0  0.34965  0.53708  0.32784  1.0000
  C   C16       1.0  0.39344  0.55316  0.33100  1.0000
  C   C17       1.0  0.42029  0.59716  0.32967  1.0000
  C   C18       1.0  0.40393  0.62428  0.32416  1.0000
  C   C19       1.0  0.24125  0.63103  0.32017  1.0000
  C   C20       1.0  0.21327  0.58721  0.32421  1.0000
  C   C21       1.0  0.16978  0.57085  0.32970  1.0000
  C   C22       1.0  0.15264  0.59771  0.33103  1.0000
  C   C23       1.0  0.18036  0.64150  0.32786  1.0000
  C   C24       1.0  0.22394  0.65787  0.32183  1.0000
  C   C25       1.0  0.38269  0.74988  0.32021  1.0000
  C   C26       1.0  0.36683  0.77785  0.32427  1.0000
  C   C27       1.0  0.39395  0.82134  0.32974  1.0000
  C   C28       1.0  0.43795  0.83849  0.33108  1.0000
  C   C29       1.0  0.45404  0.81079  0.32791  1.0000
  C   C30       1.0  0.42683  0.76720  0.32184  1.0000
  H   H10       1.0  0.15090  0.53901  0.33516  1.0000
  H   H11       1.0  0.22410  0.56644  0.32451  1.0000
  H   H12       1.0  0.16907  0.66191  0.32891  1.0000
  H   H13       1.0  0.24285  0.68978  0.31948  1.0000
  H   H14       1.0  0.33523  0.76701  0.32449  1.0000
  H   H15       1.0  0.38098  0.84021  0.33516  1.0000
  H   H16       1.0  0.43985  0.74831  0.31951  1.0000
  H   H17       1.0  0.48573  0.82208  0.32895  1.0000
  H   H18       1.0  0.42469  0.65588  0.32442  1.0000
  H   H19       1.0  0.45214  0.61013  0.33506  1.0000
  H   H20       1.0  0.32925  0.50538  0.32889  1.0000
  H   H21       1.0  0.30136  0.55127  0.31948  1.0000
  C   C31       1.0  0.10872  0.58083  0.33917  1.0000
  C   C32       1.0  0.46498  0.88242  0.33921  1.0000
  C   C33       1.0  0.41034  0.52613  0.33914  1.0000
  O   O1        1.0  0.38828  0.49016  0.38599  1.0000
  O   O2        1.0  0.50095  0.89634  0.38607  1.0000
  O   O3        1.0  0.09481  0.60289  0.38602  1.0000
  C   C34       1.0  0.70412  0.34590  0.33183  1.0000
  N   N7        1.0  0.68726  0.37137  0.33170  1.0000
  C   C35       1.0  0.64526  0.35644  0.33187  1.0000
  N   N8        1.0  0.61978  0.31411  0.33170  1.0000
  C   C36       1.0  0.63471  0.28704  0.33184  1.0000
  N   N9        1.0  0.67704  0.30389  0.33167  1.0000
  C   C37       1.0  0.62861  0.38392  0.32985  1.0000
  C   C38       1.0  0.65512  0.42810  0.33151  1.0000
  C   C39       1.0  0.63843  0.45509  0.32758  1.0000
  C   C40       1.0  0.59462  0.43873  0.32317  1.0000
  C   C41       1.0  0.56808  0.39468  0.32091  1.0000
  C   C42       1.0  0.58476  0.36778  0.32433  1.0000
  C   C43       1.0  0.74824  0.36255  0.32979  1.0000
  C   C44       1.0  0.77595  0.40639  0.32425  1.0000
  C   C45       1.0  0.81953  0.42308  0.32075  1.0000
  C   C46       1.0  0.83704  0.39655  0.32305  1.0000
  C   C47       1.0  0.80959  0.35273  0.32748  1.0000
  C   C48       1.0  0.76591  0.33604  0.33143  1.0000
  C   C49       1.0  0.60724  0.24291  0.32980  1.0000
  C   C50       1.0  0.62338  0.21521  0.32427  1.0000
  C   C51       1.0  0.59649  0.17162  0.32080  1.0000
  C   C52       1.0  0.55245  0.15411  0.32308  1.0000
  C   C53       1.0  0.53608  0.18155  0.32750  1.0000
  C   C54       1.0  0.56306  0.22523  0.33144  1.0000
  H   H22       1.0  0.83822  0.45490  0.31430  1.0000
  H   H23       1.0  0.76484  0.42692  0.32158  1.0000
  H   H24       1.0  0.82114  0.33254  0.32906  1.0000
  H   H25       1.0  0.74723  0.30413  0.33511  1.0000
  H   H26       1.0  0.65501  0.22631  0.32155  1.0000
  H   H27       1.0  0.60962  0.15293  0.31426  1.0000
  H   H28       1.0  0.54984  0.24392  0.33512  1.0000
  H   H29       1.0  0.50434  0.17001  0.32906  1.0000
  H   H30       1.0  0.56424  0.33616  0.32159  1.0000
  H   H31       1.0  0.53627  0.38157  0.31433  1.0000
  H   H32       1.0  0.65863  0.48682  0.32913  1.0000
  H   H33       1.0  0.68703  0.44132  0.33518  1.0000
  C   C55       1.0  0.88107  0.41368  0.31728  1.0000
  C   C56       1.0  0.52555  0.11008  0.31726  1.0000
  C   C57       1.0  0.57749  0.46563  0.31737  1.0000
  O   O4        1.0  0.59983  0.50257  0.27387  1.0000
  O   O5        1.0  0.48861  0.09547  0.27377  1.0000
  O   O6        1.0  0.89568  0.39135  0.27379  1.0000
  C   C58       1.0  0.51872  0.47655  0.34247  1.0000
  C   C59       1.0  0.50003  0.48538  0.41509  1.0000
  C   C60       1.0  0.47547  0.50431  0.40076  1.0000
  H   H34       1.0  0.46332  0.51164  0.45427  1.0000
  O   O7        1.0  0.50531  0.47606  0.49963  1.0000
  H   H35       1.0  0.53314  0.49855  0.51857  1.0000
  N   N10       1.0  0.54006  0.45554  0.35538  1.0000
  H   H36       1.0  0.52773  0.43219  0.39715  1.0000
  C   C61       1.0  0.51462  0.04038  0.34239  1.0000
  C   C62       1.0  0.50578  0.01289  0.41505  1.0000
  C   C63       1.0  0.48683  0.96938  0.40077  1.0000
  H   H37       1.0  0.47948  0.94992  0.45430  1.0000
  O   O8        1.0  0.51511  0.02750  0.49956  1.0000
  H   H38       1.0  0.49264  0.03287  0.51849  1.0000
  N   N11       1.0  0.53567  0.08274  0.35523  1.0000
  H   H39       1.0  0.55899  0.09376  0.39706  1.0000
  C   C64       1.0  0.95076  0.47245  0.34239  1.0000
  C   C65       1.0  0.97826  0.49114  0.41503  1.0000
  C   C66       1.0  0.02176  0.51573  0.40072  1.0000
  H   H40       1.0  0.04123  0.52784  0.45424  1.0000
  O   O9        1.0  0.96366  0.48585  0.49956  1.0000
  H   H41       1.0  0.95832  0.45803  0.51848  1.0000
  N   N12       1.0  0.90840  0.45112  0.35527  1.0000
  H   H42       1.0  0.89738  0.46342  0.39710  1.0000
