data_image0
_chemical_formula_structural       C5H6C6H6CNC5H3N2C5H3N2C5H3NC12H6C6H3C9H3C12H6C6H3C9H3C5NH3NC5NH3NC5NH3N
_chemical_formula_sum              "C96 H54 N12"
_cell_length_a       52.6001
_cell_length_b       52.6059
_cell_length_c       14.8594
_cell_angle_alpha    90
_cell_angle_beta     90
_cell_angle_gamma    119.995

_space_group_name_H-M_alt    "P 1"
_space_group_IT_number       1

loop_
  _space_group_symop_operation_xyz
  'x, y, z'

loop_
  _atom_site_type_symbol
  _atom_site_label
  _atom_site_symmetry_multiplicity
  _atom_site_fract_x
  _atom_site_fract_y
  _atom_site_fract_z
  _atom_site_occupancy
  C   C1        1.0  0.39195  0.58948  0.31862  1.0000
  C   C2        1.0  0.42219  0.80491  0.31715  1.0000
  C   C3        1.0  0.43495  0.83554  0.32734  1.0000
  C   C4        1.0  0.20694  0.61967  0.31709  1.0000
  C   C5        1.0  0.17631  0.60179  0.32726  1.0000
  H   H1        1.0  0.40149  0.55525  0.31036  1.0000
  H   H2        1.0  0.43452  0.79670  0.28993  1.0000
  H   H3        1.0  0.45628  0.84869  0.30760  1.0000
  H   H4        1.0  0.21514  0.64020  0.28982  1.0000
  H   H5        1.0  0.16315  0.60997  0.30752  1.0000
  H   H6        1.0  0.37121  0.57697  0.29296  1.0000
  C   C6        1.0  0.40985  0.57674  0.32857  1.0000
  C   C7        1.0  0.62385  0.42125  0.35604  1.0000
  C   C8        1.0  0.59047  0.20498  0.35416  1.0000
  C   C9        1.0  0.57791  0.17431  0.34630  1.0000
  C   C10       1.0  0.80683  0.38782  0.35411  1.0000
  C   C11       1.0  0.83751  0.40593  0.34619  1.0000
  H   H7        1.0  0.61526  0.45618  0.35124  1.0000
  H   H8        1.0  0.57689  0.21359  0.36180  1.0000
  H   H9        1.0  0.55552  0.16150  0.34773  1.0000
  H   H10       1.0  0.79824  0.36564  0.36178  1.0000
  H   H11       1.0  0.85033  0.39637  0.34773  1.0000
  H   H12       1.0  0.64594  0.43478  0.36563  1.0000
  C   C12       1.0  0.60575  0.43382  0.34792  1.0000
  N   N1        1.0  0.51452  0.47992  0.28029  1.0000
  C   C13       1.0  0.52888  0.46451  0.27917  1.0000
  C   C14       1.0  0.49938  0.51255  0.34387  1.0000
  C   C15       1.0  0.48250  0.51106  0.26766  1.0000
  C   C16       1.0  0.46719  0.52668  0.26662  1.0000
  C   C17       1.0  0.46857  0.54415  0.34053  1.0000
  H   H13       1.0  0.48118  0.49879  0.21263  1.0000
  H   H14       1.0  0.45516  0.52539  0.21087  1.0000
  H   H15       1.0  0.52699  0.45231  0.22352  1.0000
  N   N2        1.0  0.45359  0.55843  0.33592  1.0000
  N   N3        1.0  0.53189  0.03700  0.28080  1.0000
  C   C18       1.0  0.54729  0.06678  0.27974  1.0000
  C   C19       1.0  0.49924  0.98922  0.34431  1.0000
  C   C20       1.0  0.50063  0.97384  0.26790  1.0000
  C   C21       1.0  0.48502  0.94292  0.26688  1.0000
  C   C22       1.0  0.46768  0.92683  0.34098  1.0000
  H   H16       1.0  0.51280  0.98479  0.21273  1.0000
  H   H17       1.0  0.48621  0.93218  0.21097  1.0000
  H   H18       1.0  0.55951  0.07711  0.22412  1.0000
  N   N4        1.0  0.45338  0.89757  0.33632  1.0000
  N   N5        1.0  0.97483  0.49722  0.28075  1.0000
  C   C23       1.0  0.94505  0.48284  0.27967  1.0000
  C   C24       1.0  0.02261  0.51238  0.34429  1.0000
  C   C25       1.0  0.03799  0.52912  0.26786  1.0000
  C   C26       1.0  0.06892  0.54444  0.26683  1.0000
  C   C27       1.0  0.08501  0.54321  0.34097  1.0000
  H   H19       1.0  0.02704  0.53033  0.21266  1.0000
  H   H20       1.0  0.07966  0.55636  0.21092  1.0000
  H   H21       1.0  0.93472  0.48472  0.22405  1.0000
  N   N6        1.0  0.11428  0.55819  0.33633  1.0000
  C   C28       1.0  0.39304  0.78589  0.34538  1.0000
  C   C29       1.0  0.40235  0.61885  0.34491  1.0000
  C   C30       1.0  0.22597  0.60955  0.34542  1.0000
  C   C31       1.0  0.43850  0.59297  0.36516  1.0000
  C   C32       1.0  0.44867  0.62245  0.39082  1.0000
  C   C33       1.0  0.43092  0.63528  0.38078  1.0000
  C   C34       1.0  0.41896  0.84791  0.36598  1.0000
  C   C35       1.0  0.38969  0.82856  0.39354  1.0000
  C   C36       1.0  0.37684  0.79799  0.38336  1.0000
  C   C37       1.0  0.16394  0.57345  0.36604  1.0000
  C   C38       1.0  0.18331  0.56356  0.39369  1.0000
  C   C39       1.0  0.21388  0.58128  0.38347  1.0000
  H   H22       1.0  0.46918  0.63495  0.41792  1.0000
  H   H23       1.0  0.43903  0.65660  0.40092  1.0000
  H   H24       1.0  0.35568  0.78475  0.40488  1.0000
  H   H25       1.0  0.37736  0.83654  0.42214  1.0000
  H   H26       1.0  0.17534  0.54326  0.42236  1.0000
  H   H27       1.0  0.22712  0.57337  0.40506  1.0000
  C   C40       1.0  0.30935  0.65532  0.33367  1.0000
  C   C41       1.0  0.32440  0.68633  0.33378  1.0000
  C   C42       1.0  0.35542  0.70252  0.33367  1.0000
  C   C43       1.0  0.37139  0.68747  0.33375  1.0000
  C   C44       1.0  0.35656  0.65645  0.33364  1.0000
  C   C45       1.0  0.32554  0.64048  0.33376  1.0000
  H   H28       1.0  0.39396  0.69918  0.33436  1.0000
  H   H29       1.0  0.31268  0.69719  0.33444  1.0000
  H   H30       1.0  0.31468  0.61792  0.33437  1.0000
  C   C46       1.0  0.25445  0.62610  0.33865  1.0000
  C   C47       1.0  0.28065  0.64038  0.33526  1.0000
  C   C48       1.0  0.38578  0.63077  0.33839  1.0000
  C   C49       1.0  0.37149  0.64269  0.33515  1.0000
  C   C50       1.0  0.36918  0.73121  0.33525  1.0000
  C   C51       1.0  0.38110  0.75741  0.33863  1.0000
  C   C52       1.0  0.13391  0.55567  0.38083  1.0000
  C   C53       1.0  0.43120  0.87794  0.38074  1.0000
  C   C54       1.0  0.45631  0.58076  0.37983  1.0000
  H   H31       1.0  0.47239  0.59031  0.42485  1.0000
  H   H32       1.0  0.42183  0.88445  0.42642  1.0000
  H   H33       1.0  0.12741  0.53980  0.42654  1.0000
  C   C55       1.0  0.62123  0.22351  0.34985  1.0000
  C   C56       1.0  0.61173  0.39055  0.34923  1.0000
  C   C57       1.0  0.78830  0.40004  0.34975  1.0000
  C   C58       1.0  0.57518  0.41606  0.33264  1.0000
  C   C59       1.0  0.56329  0.38531  0.32647  1.0000
  C   C60       1.0  0.58126  0.37266  0.33487  1.0000
  C   C61       1.0  0.59574  0.16146  0.33367  1.0000
  C   C62       1.0  0.62655  0.18026  0.32990  1.0000
  C   C63       1.0  0.63918  0.21088  0.33815  1.0000
  C   C64       1.0  0.85036  0.43662  0.33359  1.0000
  C   C65       1.0  0.83154  0.44862  0.32977  1.0000
  C   C66       1.0  0.80093  0.43063  0.33802  1.0000
  H   H34       1.0  0.54133  0.37172  0.31498  1.0000
  H   H35       1.0  0.57185  0.35033  0.32913  1.0000
  H   H36       1.0  0.66157  0.22376  0.33411  1.0000
  H   H37       1.0  0.64020  0.17184  0.32026  1.0000
  H   H38       1.0  0.83996  0.47068  0.32017  1.0000
  H   H39       1.0  0.78804  0.44012  0.33402  1.0000
  C   C67       1.0  0.70485  0.35417  0.35684  1.0000
  C   C68       1.0  0.68982  0.32316  0.35678  1.0000
  C   C69       1.0  0.65880  0.30695  0.35684  1.0000
  C   C70       1.0  0.64281  0.32198  0.35672  1.0000
  C   C71       1.0  0.65762  0.35300  0.35677  1.0000
  C   C72       1.0  0.68864  0.36898  0.35672  1.0000
  H   H40       1.0  0.62024  0.31026  0.35635  1.0000
  H   H41       1.0  0.70155  0.31231  0.35648  1.0000
  H   H42       1.0  0.69949  0.39155  0.35634  1.0000
  C   C73       1.0  0.75977  0.38343  0.35400  1.0000
  C   C74       1.0  0.73355  0.36912  0.35598  1.0000
  C   C75       1.0  0.62835  0.37865  0.35371  1.0000
  C   C76       1.0  0.64267  0.36674  0.35582  1.0000
  C   C77       1.0  0.64505  0.27825  0.35600  1.0000
  C   C78       1.0  0.63314  0.25204  0.35404  1.0000
  C   C79       1.0  0.88033  0.45483  0.32031  1.0000
  C   C80       1.0  0.58398  0.13149  0.32036  1.0000
  C   C81       1.0  0.55700  0.42787  0.31929  1.0000
  H   H43       1.0  0.53939  0.41687  0.28044  1.0000
  H   H44       1.0  0.59512  0.12487  0.28214  1.0000
  H   H45       1.0  0.88695  0.47259  0.28209  1.0000
  C   C82       1.0  0.54632  0.46582  0.35337  1.0000
  C   C83       1.0  0.54839  0.48399  0.42603  1.0000
  C   C84       1.0  0.53301  0.49954  0.42484  1.0000
  C   C85       1.0  0.51549  0.49735  0.34956  1.0000
  C   C86       1.0  0.48535  0.54471  0.41566  1.0000
  N   N7        1.0  0.49974  0.52933  0.41423  1.0000
  H   H46       1.0  0.48680  0.55636  0.47223  1.0000
  H   H47       1.0  0.56094  0.48584  0.48100  1.0000
  H   H48       1.0  0.53486  0.51237  0.47893  1.0000
  N   N8        1.0  0.56140  0.45165  0.35779  1.0000
  C   C87       1.0  0.54594  0.08288  0.35393  1.0000
  C   C88       1.0  0.52774  0.06676  0.42652  1.0000
  C   C89       1.0  0.51222  0.03584  0.42530  1.0000
  C   C90       1.0  0.51444  0.02052  0.35002  1.0000
  C   C91       1.0  0.46722  0.94303  0.41628  1.0000
  N   N9        1.0  0.48258  0.97280  0.41482  1.0000
  H   H49       1.0  0.45565  0.93284  0.47296  1.0000
  H   H50       1.0  0.52587  0.07745  0.48147  1.0000
  H   H51       1.0  0.49937  0.02485  0.47934  1.0000
  N   N10       1.0  0.56007  0.11212  0.35833  1.0000
  C   C92       1.0  0.92894  0.46540  0.35388  1.0000
  C   C93       1.0  0.94507  0.46334  0.42651  1.0000
  C   C94       1.0  0.97599  0.47874  0.42529  1.0000
  C   C95       1.0  0.99131  0.49627  0.34999  1.0000
  C   C96       1.0  0.06881  0.52657  0.41630  1.0000
  N   N11       1.0  0.03904  0.51217  0.41484  1.0000
  H   H52       1.0  0.07900  0.52522  0.47301  1.0000
  H   H53       1.0  0.93437  0.45078  0.48147  1.0000
  H   H54       1.0  0.98698  0.47690  0.47935  1.0000
  N   N12       1.0  0.89970  0.45029  0.35828  1.0000
