data_image0
_chemical_formula_structural       C3HCH3C3HCH3C3HCH3C3HCH3C3HCH3C3HCH3C3HCH3C3HCH3C3HCH3C3HCH3C3HCH3C3HCH3C3HCH3C3HCH3C3HCH3C3HCH3C3HCH3C3HCH3C6H3C6H3C6H3C6H3C6H3C6H3C6H3C6H3C6H3C6H3C6H3C6H3C3HCH3C3HCH3C3HCH3C3HCH3C3HCH3C3HCH3C3HCH3C3HCH3C3HCH3C3HCH3C3HCH3C3HCH3C3HCH3C3HCH3C3HCH3C3HCH3C3HCH3C3HCH3
_chemical_formula_sum              "C216 H180"
_cell_length_a       39.8549
_cell_length_b       39.8548
_cell_length_c       14.841
_cell_angle_alpha    90
_cell_angle_beta     90
_cell_angle_gamma    120

_space_group_name_H-M_alt    "P 1"
_space_group_IT_number       1

loop_
  _space_group_symop_operation_xyz
  'x, y, z'

loop_
  _atom_site_type_symbol
  _atom_site_label
  _atom_site_symmetry_multiplicity
  _atom_site_fract_x
  _atom_site_fract_y
  _atom_site_fract_z
  _atom_site_occupancy
  C   C1        1.0  0.25256  0.45809  0.26252  1.0000
  C   C2        1.0  0.21707  0.45833  0.26115  1.0000
  C   C3        1.0  0.19907  0.45872  0.34412  1.0000
  H   H1        1.0  0.26618  0.45927  0.20308  1.0000
  C   C4        1.0  0.20013  0.45944  0.17237  1.0000
  H   H2        1.0  0.21692  0.45841  0.11536  1.0000
  H   H3        1.0  0.19883  0.48606  0.16656  1.0000
  H   H4        1.0  0.17087  0.43466  0.16664  1.0000
  C   C5        1.0  0.57386  0.81570  0.26252  1.0000
  C   C6        1.0  0.57362  0.77998  0.26115  1.0000
  C   C7        1.0  0.57323  0.76158  0.34412  1.0000
  H   H5        1.0  0.57267  0.82814  0.20308  1.0000
  C   C8        1.0  0.57251  0.76192  0.17237  1.0000
  H   H6        1.0  0.57354  0.77974  0.11536  1.0000
  H   H7        1.0  0.54589  0.73400  0.16656  1.0000
  H   H8        1.0  0.59729  0.75744  0.16664  1.0000
  C   C9        1.0  0.21624  0.77939  0.26253  1.0000
  C   C10       1.0  0.25197  0.81487  0.26114  1.0000
  C   C11       1.0  0.27036  0.83287  0.34411  1.0000
  H   H9        1.0  0.20380  0.76577  0.20309  1.0000
  C   C12       1.0  0.27003  0.83180  0.17237  1.0000
  H   H10       1.0  0.25221  0.81502  0.11535  1.0000
  H   H11       1.0  0.29795  0.83310  0.16657  1.0000
  H   H12       1.0  0.27452  0.86107  0.16662  1.0000
  C   C13       1.0  0.77589  0.57736  0.26255  1.0000
  C   C14       1.0  0.81137  0.57713  0.26117  1.0000
  C   C15       1.0  0.82938  0.57674  0.34414  1.0000
  H   H13       1.0  0.76227  0.57618  0.20311  1.0000
  C   C16       1.0  0.82831  0.57601  0.17239  1.0000
  H   H14       1.0  0.81152  0.57703  0.11538  1.0000
  H   H15       1.0  0.82961  0.54939  0.16659  1.0000
  H   H16       1.0  0.85757  0.60078  0.16665  1.0000
  C   C17       1.0  0.45459  0.21977  0.26254  1.0000
  C   C18       1.0  0.45483  0.25549  0.26116  1.0000
  C   C19       1.0  0.45521  0.27388  0.34413  1.0000
  H   H17       1.0  0.45578  0.20733  0.20310  1.0000
  C   C20       1.0  0.45595  0.27355  0.17239  1.0000
  H   H18       1.0  0.45493  0.25573  0.11537  1.0000
  H   H19       1.0  0.48257  0.30147  0.16659  1.0000
  H   H20       1.0  0.43118  0.27803  0.16663  1.0000
  C   C21       1.0  0.81219  0.25607  0.26255  1.0000
  C   C22       1.0  0.77646  0.22059  0.26117  1.0000
  C   C23       1.0  0.75806  0.20259  0.34414  1.0000
  H   H21       1.0  0.82462  0.26969  0.20311  1.0000
  C   C24       1.0  0.75840  0.20366  0.17239  1.0000
  H   H22       1.0  0.77622  0.22044  0.11538  1.0000
  H   H23       1.0  0.73048  0.20236  0.16659  1.0000
  H   H24       1.0  0.75391  0.17439  0.16664  1.0000
  C   C25       1.0  0.14841  0.54893  0.34407  1.0000
  C   C26       1.0  0.14815  0.60232  0.26087  1.0000
  C   C27       1.0  0.14830  0.56690  0.26245  1.0000
  H   H25       1.0  0.14687  0.55314  0.20297  1.0000
  C   C28       1.0  0.14667  0.61775  0.17027  1.0000
  H   H26       1.0  0.14743  0.64543  0.17262  1.0000
  H   H27       1.0  0.12008  0.59706  0.13569  1.0000
  H   H28       1.0  0.17143  0.62191  0.13013  1.0000
  C   C29       1.0  0.48303  0.62072  0.34407  1.0000
  C   C30       1.0  0.42964  0.56706  0.26087  1.0000
  C   C31       1.0  0.46506  0.60264  0.26245  1.0000
  H   H29       1.0  0.47882  0.61496  0.20297  1.0000
  C   C32       1.0  0.41421  0.55016  0.17028  1.0000
  H   H30       1.0  0.38652  0.52323  0.17262  1.0000
  H   H31       1.0  0.43490  0.54426  0.13569  1.0000
  H   H32       1.0  0.41004  0.57075  0.13013  1.0000
  C   C33       1.0  0.41123  0.88354  0.34412  1.0000
  C   C34       1.0  0.46488  0.88380  0.26088  1.0000
  C   C35       1.0  0.42930  0.88365  0.26248  1.0000
  H   H33       1.0  0.41697  0.88508  0.20301  1.0000
  C   C36       1.0  0.48178  0.88528  0.17029  1.0000
  H   H34       1.0  0.50871  0.88452  0.17262  1.0000
  H   H35       1.0  0.48767  0.91187  0.13571  1.0000
  H   H36       1.0  0.46118  0.86053  0.13014  1.0000
  C   C37       1.0  0.88003  0.48653  0.34406  1.0000
  C   C38       1.0  0.88028  0.43314  0.26087  1.0000
  C   C39       1.0  0.88013  0.46856  0.26244  1.0000
  H   H37       1.0  0.88157  0.48232  0.20297  1.0000
  C   C40       1.0  0.88176  0.41771  0.17027  1.0000
  H   H38       1.0  0.88100  0.39002  0.17261  1.0000
  H   H39       1.0  0.90834  0.43840  0.13569  1.0000
  H   H40       1.0  0.85700  0.41354  0.13013  1.0000
  C   C41       1.0  0.54542  0.41475  0.34406  1.0000
  C   C42       1.0  0.59881  0.46839  0.26087  1.0000
  C   C43       1.0  0.56339  0.43281  0.26244  1.0000
  H   H41       1.0  0.54963  0.42049  0.20297  1.0000
  C   C44       1.0  0.61424  0.48529  0.17027  1.0000
  H   H42       1.0  0.64193  0.51221  0.17261  1.0000
  H   H43       1.0  0.59356  0.49119  0.13569  1.0000
  H   H44       1.0  0.61840  0.46469  0.13013  1.0000
  C   C45       1.0  0.61719  0.15189  0.34408  1.0000
  C   C46       1.0  0.56356  0.15166  0.26087  1.0000
  C   C47       1.0  0.59913  0.15180  0.26245  1.0000
  H   H45       1.0  0.61146  0.15036  0.20298  1.0000
  C   C48       1.0  0.54666  0.15019  0.17028  1.0000
  H   H46       1.0  0.51974  0.15096  0.17262  1.0000
  H   H47       1.0  0.54075  0.12360  0.13569  1.0000
  H   H48       1.0  0.56726  0.17494  0.13013  1.0000
  C   C49       1.0  0.03507  0.39923  0.26213  1.0000
  C   C50       1.0  0.99397  0.37900  0.26095  1.0000
  C   C51       1.0  0.97305  0.36929  0.34403  1.0000
  H   H49       1.0  0.04998  0.40864  0.20265  1.0000
  C   C52       1.0  0.97372  0.37056  0.17227  1.0000
  H   H50       1.0  0.99356  0.37860  0.11515  1.0000
  H   H51       1.0  0.95814  0.38648  0.16611  1.0000
  H   H52       1.0  0.95306  0.33959  0.16701  1.0000
  C   C53       1.0  0.63272  0.65708  0.26213  1.0000
  C   C54       1.0  0.65295  0.63621  0.26095  1.0000
  C   C55       1.0  0.66266  0.62500  0.34403  1.0000
  H   H53       1.0  0.62331  0.66257  0.20265  1.0000
  C   C56       1.0  0.66139  0.62440  0.17227  1.0000
  H   H54       1.0  0.65335  0.63619  0.11515  1.0000
  H   H55       1.0  0.64547  0.59289  0.16611  1.0000
  H   H56       1.0  0.69236  0.63470  0.16700  1.0000
  C   C57       1.0  0.37485  0.99686  0.26212  1.0000
  C   C58       1.0  0.39573  0.03796  0.26094  1.0000
  C   C59       1.0  0.40696  0.05890  0.34400  1.0000
  H   H57       1.0  0.36936  0.98196  0.20264  1.0000
  C   C60       1.0  0.40754  0.05821  0.17226  1.0000
  H   H58       1.0  0.39574  0.03837  0.11515  1.0000
  H   H59       1.0  0.43904  0.07379  0.16611  1.0000
  H   H60       1.0  0.39724  0.07888  0.16700  1.0000
  C   C61       1.0  0.99337  0.63623  0.26206  1.0000
  C   C62       1.0  0.03447  0.65646  0.26092  1.0000
  C   C63       1.0  0.05537  0.66616  0.34403  1.0000
  H   H61       1.0  0.97847  0.62682  0.20259  1.0000
  C   C64       1.0  0.05473  0.66492  0.17225  1.0000
  H   H62       1.0  0.03490  0.65688  0.11513  1.0000
  H   H63       1.0  0.07032  0.64900  0.16610  1.0000
  H   H64       1.0  0.07540  0.69589  0.16702  1.0000
  C   C65       1.0  0.39570  0.37837  0.26206  1.0000
  C   C66       1.0  0.37547  0.39924  0.26092  1.0000
  C   C67       1.0  0.36577  0.41045  0.34403  1.0000
  H   H65       1.0  0.40511  0.37288  0.20258  1.0000
  C   C68       1.0  0.36701  0.41104  0.17225  1.0000
  H   H66       1.0  0.37505  0.39925  0.11513  1.0000
  H   H67       1.0  0.38293  0.44255  0.16610  1.0000
  H   H68       1.0  0.33605  0.40074  0.16702  1.0000
  C   C69       1.0  0.65357  0.03856  0.26209  1.0000
  C   C70       1.0  0.63270  0.99746  0.26093  1.0000
  C   C71       1.0  0.62149  0.97655  0.34402  1.0000
  H   H69       1.0  0.65906  0.05345  0.20262  1.0000
  C   C72       1.0  0.62089  0.97720  0.17225  1.0000
  H   H70       1.0  0.63268  0.99704  0.11513  1.0000
  H   H71       1.0  0.58939  0.96162  0.16611  1.0000
  H   H72       1.0  0.63119  0.95654  0.16700  1.0000
  C   C73       1.0  0.14213  0.51063  0.34393  1.0000
  C   C74       1.0  0.10381  0.47916  0.34331  1.0000
  C   C75       1.0  0.09591  0.44042  0.34296  1.0000
  C   C76       1.0  0.12753  0.43347  0.34296  1.0000
  C   C77       1.0  0.16640  0.46467  0.34345  1.0000
  C   C78       1.0  0.17319  0.50312  0.34424  1.0000
  H   H73       1.0  0.12222  0.40555  0.34291  1.0000
  H   H74       1.0  0.20105  0.52594  0.34476  1.0000
  H   H75       1.0  0.08123  0.48463  0.34331  1.0000
  C   C79       1.0  0.52133  0.65274  0.34393  1.0000
  C   C80       1.0  0.55279  0.64588  0.34332  1.0000
  C   C81       1.0  0.59154  0.67673  0.34296  1.0000
  C   C82       1.0  0.59848  0.71529  0.34294  1.0000
  C   C83       1.0  0.56729  0.72296  0.34345  1.0000
  C   C84       1.0  0.52884  0.69130  0.34424  1.0000
  H   H76       1.0  0.62640  0.73791  0.34291  1.0000
  H   H77       1.0  0.50601  0.69634  0.34476  1.0000
  H   H78       1.0  0.54733  0.61784  0.34331  1.0000
  C   C85       1.0  0.37920  0.88981  0.34395  1.0000
  C   C86       1.0  0.38606  0.92813  0.34332  1.0000
  C   C87       1.0  0.35521  0.93603  0.34295  1.0000
  C   C88       1.0  0.31665  0.90441  0.34294  1.0000
  C   C89       1.0  0.30898  0.86554  0.34346  1.0000
  C   C90       1.0  0.34064  0.85876  0.34425  1.0000
  H   H79       1.0  0.29403  0.90971  0.34289  1.0000
  H   H80       1.0  0.33561  0.83090  0.34478  1.0000
  H   H81       1.0  0.41410  0.95071  0.34334  1.0000
  C   C91       1.0  0.88631  0.52483  0.34395  1.0000
  C   C92       1.0  0.92463  0.55629  0.34331  1.0000
  C   C93       1.0  0.93254  0.59504  0.34295  1.0000
  C   C94       1.0  0.90092  0.60198  0.34295  1.0000
  C   C95       1.0  0.86206  0.57079  0.34348  1.0000
  C   C96       1.0  0.85526  0.53234  0.34426  1.0000
  H   H82       1.0  0.90623  0.62991  0.34290  1.0000
  H   H83       1.0  0.82740  0.50952  0.34479  1.0000
  H   H84       1.0  0.94721  0.55083  0.34329  1.0000
  C   C97       1.0  0.50711  0.38272  0.34396  1.0000
  C   C98       1.0  0.47565  0.38959  0.34331  1.0000
  C   C99       1.0  0.43690  0.35874  0.34294  1.0000
  C   C100      1.0  0.42996  0.32018  0.34295  1.0000
  C   C101      1.0  0.46115  0.31250  0.34347  1.0000
  C   C102      1.0  0.49960  0.34416  0.34426  1.0000
  H   H85       1.0  0.40204  0.29756  0.34290  1.0000
  H   H86       1.0  0.52243  0.33912  0.34479  1.0000
  H   H87       1.0  0.48112  0.41763  0.34329  1.0000
  C   C103      1.0  0.64922  0.14563  0.34395  1.0000
  C   C104      1.0  0.64237  0.10731  0.34331  1.0000
  C   C105      1.0  0.67323  0.09942  0.34294  1.0000
  C   C106      1.0  0.71178  0.13104  0.34295  1.0000
  C   C107      1.0  0.71945  0.16991  0.34347  1.0000
  C   C108      1.0  0.68778  0.17669  0.34426  1.0000
  H   H88       1.0  0.73440  0.12575  0.34289  1.0000
  H   H89       1.0  0.69281  0.20455  0.34480  1.0000
  H   H90       1.0  0.61433  0.08472  0.34329  1.0000
  C   C109      1.0  0.50706  0.14516  0.34485  1.0000
  C   C110      1.0  0.47568  0.10680  0.34447  1.0000
  C   C111      1.0  0.43691  0.09881  0.34362  1.0000
  C   C112      1.0  0.42985  0.13036  0.34321  1.0000
  C   C113      1.0  0.46095  0.16924  0.34385  1.0000
  C   C114      1.0  0.49943  0.17615  0.34463  1.0000
  H   H91       1.0  0.40189  0.12494  0.34286  1.0000
  H   H92       1.0  0.52222  0.20403  0.34473  1.0000
  H   H93       1.0  0.48122  0.08428  0.34458  1.0000
  C   C115      1.0  0.64882  0.52490  0.34484  1.0000
  C   C116      1.0  0.64184  0.55627  0.34446  1.0000
  C   C117      1.0  0.67261  0.59504  0.34361  1.0000
  C   C118      1.0  0.71123  0.60210  0.34321  1.0000
  C   C119      1.0  0.71901  0.57100  0.34384  1.0000
  C   C120      1.0  0.68743  0.53252  0.34461  1.0000
  H   H94       1.0  0.73377  0.63006  0.34288  1.0000
  H   H95       1.0  0.69252  0.50973  0.34472  1.0000
  H   H96       1.0  0.61378  0.55074  0.34458  1.0000
  C   C121      1.0  0.88680  0.38314  0.34484  1.0000
  C   C122      1.0  0.92515  0.39011  0.34446  1.0000
  C   C123      1.0  0.93314  0.35934  0.34361  1.0000
  C   C124      1.0  0.90159  0.32073  0.34321  1.0000
  C   C125      1.0  0.86271  0.31294  0.34384  1.0000
  C   C126      1.0  0.85580  0.34452  0.34461  1.0000
  H   H97       1.0  0.90701  0.29819  0.34288  1.0000
  H   H98       1.0  0.82792  0.33943  0.34471  1.0000
  H   H99       1.0  0.94768  0.41818  0.34458  1.0000
  C   C127      1.0  0.52139  0.89030  0.34485  1.0000
  C   C128      1.0  0.55277  0.92865  0.34447  1.0000
  C   C129      1.0  0.59153  0.93664  0.34362  1.0000
  C   C130      1.0  0.59859  0.90509  0.34320  1.0000
  C   C131      1.0  0.56748  0.86621  0.34384  1.0000
  C   C132      1.0  0.52900  0.85931  0.34461  1.0000
  H   H100      1.0  0.62655  0.91050  0.34287  1.0000
  H   H101      1.0  0.50621  0.83143  0.34471  1.0000
  H   H102      1.0  0.54723  0.95118  0.34459  1.0000
  C   C133      1.0  0.37964  0.51056  0.34486  1.0000
  C   C134      1.0  0.38660  0.47917  0.34448  1.0000
  C   C135      1.0  0.35582  0.44041  0.34362  1.0000
  C   C136      1.0  0.31722  0.43335  0.34321  1.0000
  C   C137      1.0  0.30944  0.46446  0.34384  1.0000
  C   C138      1.0  0.34102  0.50294  0.34462  1.0000
  H   H103      1.0  0.29467  0.40540  0.34287  1.0000
  H   H104      1.0  0.33594  0.52573  0.34471  1.0000
  H   H105      1.0  0.41467  0.48471  0.34459  1.0000
  C   C139      1.0  0.14164  0.65232  0.34486  1.0000
  C   C140      1.0  0.10328  0.64534  0.34447  1.0000
  C   C141      1.0  0.09529  0.67611  0.34362  1.0000
  C   C142      1.0  0.12683  0.71472  0.34321  1.0000
  C   C143      1.0  0.16572  0.72251  0.34384  1.0000
  C   C144      1.0  0.17263  0.69094  0.34461  1.0000
  H   H106      1.0  0.12141  0.73726  0.34287  1.0000
  H   H107      1.0  0.20051  0.69602  0.34471  1.0000
  H   H108      1.0  0.08076  0.61727  0.34459  1.0000
  C   C145      1.0  0.27095  0.45839  0.34391  1.0000
  C   C146      1.0  0.21734  0.45878  0.42705  1.0000
  C   C147      1.0  0.25290  0.45872  0.42533  1.0000
  H   H109      1.0  0.26666  0.46020  0.48481  1.0000
  C   C148      1.0  0.20198  0.46022  0.51772  1.0000
  H   H110      1.0  0.17425  0.45937  0.51556  1.0000
  H   H111      1.0  0.22265  0.48682  0.55225  1.0000
  H   H112      1.0  0.19793  0.43549  0.55781  1.0000
  C   C149      1.0  0.57355  0.83379  0.34391  1.0000
  C   C150      1.0  0.57317  0.77978  0.42705  1.0000
  C   C151      1.0  0.57322  0.81541  0.42533  1.0000
  H   H113      1.0  0.57174  0.82769  0.48481  1.0000
  C   C152      1.0  0.57173  0.76299  0.51772  1.0000
  H   H114      1.0  0.57259  0.73611  0.51557  1.0000
  H   H115      1.0  0.54512  0.75706  0.55224  1.0000
  H   H116      1.0  0.59646  0.78368  0.55782  1.0000
  C   C153      1.0  0.19812  0.76100  0.34391  1.0000
  C   C154      1.0  0.25216  0.81461  0.42704  1.0000
  C   C155      1.0  0.21653  0.77905  0.42532  1.0000
  H   H117      1.0  0.20425  0.76529  0.48480  1.0000
  C   C156      1.0  0.26896  0.82996  0.51772  1.0000
  H   H118      1.0  0.29584  0.85768  0.51557  1.0000
  H   H119      1.0  0.27488  0.80928  0.55223  1.0000
  H   H120      1.0  0.24828  0.83401  0.55782  1.0000
  C   C157      1.0  0.75750  0.57708  0.34393  1.0000
  C   C158      1.0  0.81111  0.57668  0.42705  1.0000
  C   C159      1.0  0.77555  0.57674  0.42534  1.0000
  H   H121      1.0  0.76179  0.57525  0.48483  1.0000
  C   C160      1.0  0.82646  0.57524  0.51774  1.0000
  H   H122      1.0  0.85420  0.57609  0.51558  1.0000
  H   H123      1.0  0.80579  0.54862  0.55224  1.0000
  H   H124      1.0  0.83051  0.59996  0.55784  1.0000
  C   C161      1.0  0.45486  0.20165  0.34392  1.0000
  C   C162      1.0  0.45529  0.25568  0.42704  1.0000
  C   C163      1.0  0.45522  0.22006  0.42532  1.0000
  H   H125      1.0  0.45671  0.20778  0.48481  1.0000
  C   C164      1.0  0.45673  0.27247  0.51772  1.0000
  H   H126      1.0  0.45587  0.29935  0.51557  1.0000
  H   H127      1.0  0.48335  0.27842  0.55222  1.0000
  H   H128      1.0  0.43201  0.25179  0.55784  1.0000
  C   C165      1.0  0.83029  0.27446  0.34394  1.0000
  C   C166      1.0  0.77627  0.22085  0.42706  1.0000
  C   C167      1.0  0.81190  0.25640  0.42534  1.0000
  H   H129      1.0  0.82418  0.27016  0.48483  1.0000
  C   C168      1.0  0.75948  0.20550  0.51774  1.0000
  H   H130      1.0  0.73259  0.17777  0.51558  1.0000
  H   H131      1.0  0.75355  0.22618  0.55226  1.0000
  H   H132      1.0  0.78015  0.20144  0.55783  1.0000
  C   C169      1.0  0.14880  0.56708  0.42580  1.0000
  C   C170      1.0  0.14847  0.60242  0.42735  1.0000
  C   C171      1.0  0.14795  0.62014  0.34416  1.0000
  H   H133      1.0  0.14757  0.55335  0.48512  1.0000
  C   C172      1.0  0.14725  0.61930  0.51615  1.0000
  H   H134      1.0  0.14845  0.60260  0.57315  1.0000
  H   H135      1.0  0.12052  0.62039  0.52204  1.0000
  H   H136      1.0  0.17189  0.64865  0.52184  1.0000
  C   C173      1.0  0.46488  0.60296  0.42581  1.0000
  C   C174      1.0  0.42954  0.56729  0.42735  1.0000
  C   C175      1.0  0.41181  0.54904  0.34416  1.0000
  H   H137      1.0  0.47861  0.61546  0.48512  1.0000
  C   C176      1.0  0.41265  0.54918  0.51615  1.0000
  H   H138      1.0  0.42936  0.56708  0.57316  1.0000
  H   H139      1.0  0.41157  0.52136  0.52204  1.0000
  H   H140      1.0  0.38331  0.54448  0.52185  1.0000
  C   C177      1.0  0.42899  0.88314  0.42583  1.0000
  C   C178      1.0  0.46466  0.88348  0.42736  1.0000
  C   C179      1.0  0.48290  0.88400  0.34417  1.0000
  H   H141      1.0  0.41649  0.88437  0.48516  1.0000
  C   C180      1.0  0.48277  0.88469  0.51617  1.0000
  H   H142      1.0  0.46487  0.88350  0.57317  1.0000
  H   H143      1.0  0.51059  0.91143  0.52204  1.0000
  H   H144      1.0  0.48747  0.86005  0.52185  1.0000
  C   C181      1.0  0.87963  0.46838  0.42581  1.0000
  C   C182      1.0  0.87996  0.43303  0.42734  1.0000
  C   C183      1.0  0.88049  0.41531  0.34416  1.0000
  H   H145      1.0  0.88086  0.48211  0.48512  1.0000
  C   C184      1.0  0.88118  0.41615  0.51615  1.0000
  H   H146      1.0  0.87998  0.43285  0.57315  1.0000
  H   H147      1.0  0.90792  0.41507  0.52203  1.0000
  H   H148      1.0  0.85654  0.38681  0.52183  1.0000
  C   C185      1.0  0.56356  0.43249  0.42581  1.0000
  C   C186      1.0  0.59892  0.46817  0.42734  1.0000
  C   C187      1.0  0.61664  0.48641  0.34416  1.0000
  H   H149      1.0  0.54983  0.41999  0.48512  1.0000
  C   C188      1.0  0.61580  0.48627  0.51615  1.0000
  H   H150      1.0  0.59910  0.46837  0.57315  1.0000
  H   H151      1.0  0.61689  0.51409  0.52203  1.0000
  H   H152      1.0  0.64514  0.49096  0.52183  1.0000
  C   C189      1.0  0.59945  0.15230  0.42583  1.0000
  C   C190      1.0  0.56378  0.15199  0.42737  1.0000
  C   C191      1.0  0.54554  0.15146  0.34418  1.0000
  H   H153      1.0  0.61196  0.15107  0.48514  1.0000
  C   C192      1.0  0.54568  0.15077  0.51617  1.0000
  H   H154      1.0  0.56358  0.15197  0.57317  1.0000
  H   H155      1.0  0.51785  0.12405  0.52205  1.0000
  H   H156      1.0  0.54099  0.17542  0.52184  1.0000
  C   C193      1.0  0.05624  0.41044  0.34341  1.0000
  C   C194      1.0  0.99417  0.37947  0.42683  1.0000
  C   C195      1.0  0.03525  0.39990  0.42493  1.0000
  H   H157      1.0  0.05026  0.40961  0.48425  1.0000
  C   C196      1.0  0.97565  0.37227  0.51746  1.0000
  H   H158      1.0  0.94414  0.35520  0.51530  1.0000
  H   H159      1.0  0.98372  0.39986  0.54998  1.0000
  H   H160      1.0  0.98566  0.35648  0.55933  1.0000
  C   C197      1.0  0.62152  0.66704  0.34341  1.0000
  C   C198      1.0  0.65248  0.63594  0.42683  1.0000
  C   C199      1.0  0.63205  0.65658  0.42493  1.0000
  H   H161      1.0  0.62234  0.66189  0.48425  1.0000
  C   C200      1.0  0.65969  0.62462  0.51746  1.0000
  H   H162      1.0  0.67675  0.61017  0.51530  1.0000
  H   H163      1.0  0.63209  0.60509  0.54998  1.0000
  H   H164      1.0  0.67548  0.65042  0.55934  1.0000
  C   C201      1.0  0.36490  0.97570  0.34341  1.0000
  C   C202      1.0  0.39601  0.03777  0.42680  1.0000
  C   C203      1.0  0.37537  0.99670  0.42490  1.0000
  H   H165      1.0  0.37006  0.98168  0.48424  1.0000
  C   C204      1.0  0.40733  0.05628  0.51743  1.0000
  H   H166      1.0  0.42178  0.08780  0.51529  1.0000
  H   H167      1.0  0.42686  0.04822  0.54995  1.0000
  H   H168      1.0  0.38153  0.04627  0.55930  1.0000
  C   C205      1.0  0.97222  0.62502  0.34335  1.0000
  C   C206      1.0  0.03425  0.65597  0.42682  1.0000
  C   C207      1.0  0.99317  0.63554  0.42490  1.0000
  H   H169      1.0  0.97815  0.62582  0.48423  1.0000
  C   C208      1.0  0.05276  0.66317  0.51745  1.0000
  H   H170      1.0  0.08428  0.68024  0.51530  1.0000
  H   H171      1.0  0.04470  0.63558  0.54998  1.0000
  H   H172      1.0  0.04275  0.67896  0.55932  1.0000
  C   C209      1.0  0.40692  0.36844  0.34335  1.0000
  C   C210      1.0  0.37597  0.39951  0.42682  1.0000
  C   C211      1.0  0.39640  0.37888  0.42490  1.0000
  H   H173      1.0  0.40612  0.37357  0.48422  1.0000
  C   C212      1.0  0.36876  0.41082  0.51745  1.0000
  H   H174      1.0  0.35169  0.42526  0.51530  1.0000
  H   H175      1.0  0.39635  0.43036  0.54997  1.0000
  H   H176      1.0  0.35298  0.38502  0.55932  1.0000
  C   C213      1.0  0.66355  0.05975  0.34334  1.0000
  C   C214      1.0  0.63243  0.99768  0.42680  1.0000
  C   C215      1.0  0.65307  0.03875  0.42485  1.0000
  H   H177      1.0  0.65838  0.05377  0.48418  1.0000
  C   C216      1.0  0.62111  0.97918  0.51744  1.0000
  H   H178      1.0  0.60666  0.94766  0.51530  1.0000
  H   H179      1.0  0.60158  0.98724  0.54994  1.0000
  H   H180      1.0  0.64691  0.98919  0.55932  1.0000
