data_image0
_chemical_formula_structural       C4H4C4H4C4H4C24H15C24H15C4HC4H2NO2C4HC4H2NO2C4HC4H2NO2
_chemical_formula_sum              "C84 H51 N3 O6"
_cell_length_a       37.3921
_cell_length_b       37.3922
_cell_length_c       14.8695
_cell_angle_alpha    90
_cell_angle_beta     90
_cell_angle_gamma    120

_space_group_name_H-M_alt    "P 1"
_space_group_IT_number       1

loop_
  _space_group_symop_operation_xyz
  'x, y, z'

loop_
  _atom_site_type_symbol
  _atom_site_label
  _atom_site_symmetry_multiplicity
  _atom_site_fract_x
  _atom_site_fract_y
  _atom_site_fract_z
  _atom_site_occupancy
  C   C1        1.0  0.55902  0.46822  0.26493  1.0000
  C   C2        1.0  0.53762  0.49023  0.26609  1.0000
  C   C3        1.0  0.46885  0.51045  0.26974  1.0000
  C   C4        1.0  0.44799  0.53305  0.26679  1.0000
  H   H1        1.0  0.46415  0.49034  0.21837  1.0000
  H   H2        1.0  0.43007  0.52925  0.21171  1.0000
  H   H3        1.0  0.57241  0.46709  0.20582  1.0000
  H   H4        1.0  0.53748  0.50517  0.20851  1.0000
  C   C5        1.0  0.55031  0.09194  0.26453  1.0000
  C   C6        1.0  0.52878  0.04850  0.26559  1.0000
  C   C7        1.0  0.51384  0.96018  0.30668  1.0000
  C   C8        1.0  0.49206  0.91669  0.30671  1.0000
  H   H5        1.0  0.54280  0.97545  0.27915  1.0000
  H   H6        1.0  0.50552  0.90147  0.27784  1.0000
  H   H7        1.0  0.55724  0.10660  0.20358  1.0000
  H   H8        1.0  0.52002  0.03303  0.20559  1.0000
  C   C9        1.0  0.91904  0.45197  0.27572  1.0000
  C   C10       1.0  0.96245  0.47359  0.27846  1.0000
  C   C11       1.0  0.05112  0.54292  0.28642  1.0000
  C   C12       1.0  0.09460  0.56438  0.28523  1.0000
  H   H9        1.0  0.03594  0.54790  0.23497  1.0000
  H   H10       1.0  0.10897  0.58295  0.23114  1.0000
  H   H11       1.0  0.90501  0.43914  0.21585  1.0000
  H   H12       1.0  0.97803  0.47446  0.22114  1.0000
  C   C13       1.0  0.29665  0.65028  0.35034  1.0000
  C   C14       1.0  0.31944  0.62943  0.34268  1.0000
  C   C15       1.0  0.36308  0.65043  0.33530  1.0000
  C   C16       1.0  0.38377  0.69416  0.33271  1.0000
  C   C17       1.0  0.36305  0.71691  0.34302  1.0000
  C   C18       1.0  0.31956  0.69402  0.35310  1.0000
  C   C19       1.0  0.38564  0.62844  0.33256  1.0000
  C   C20       1.0  0.36933  0.58907  0.29176  1.0000
  C   C21       1.0  0.39075  0.56700  0.29351  1.0000
  C   C22       1.0  0.43016  0.58340  0.33430  1.0000
  C   C23       1.0  0.44678  0.62313  0.37354  1.0000
  C   C24       1.0  0.42493  0.64474  0.37378  1.0000
  C   C25       1.0  0.25210  0.62808  0.35393  1.0000
  C   C26       1.0  0.22944  0.58866  0.39470  1.0000
  C   C27       1.0  0.18595  0.56642  0.39428  1.0000
  C   C28       1.0  0.16251  0.58268  0.35505  1.0000
  C   C29       1.0  0.18521  0.62241  0.31561  1.0000
  C   C30       1.0  0.22869  0.64420  0.31398  1.0000
  C   C31       1.0  0.38531  0.76142  0.34340  1.0000
  C   C32       1.0  0.36831  0.78443  0.30518  1.0000
  C   C33       1.0  0.38988  0.82793  0.30623  1.0000
  C   C34       1.0  0.42987  0.85029  0.34378  1.0000
  C   C35       1.0  0.44731  0.82774  0.38128  1.0000
  C   C36       1.0  0.42527  0.78426  0.38193  1.0000
  H   H13       1.0  0.17167  0.53758  0.42219  1.0000
  H   H14       1.0  0.24433  0.57550  0.42613  1.0000
  H   H15       1.0  0.17038  0.63643  0.28774  1.0000
  H   H16       1.0  0.24303  0.67204  0.28152  1.0000
  H   H17       1.0  0.34009  0.76976  0.27437  1.0000
  H   H18       1.0  0.37651  0.84319  0.27712  1.0000
  H   H19       1.0  0.43869  0.76946  0.41271  1.0000
  H   H20       1.0  0.47591  0.84286  0.41059  1.0000
  H   H21       1.0  0.43807  0.67252  0.40641  1.0000
  H   H22       1.0  0.47541  0.63723  0.40250  1.0000
  H   H23       1.0  0.37654  0.53816  0.26557  1.0000
  H   H24       1.0  0.34144  0.57579  0.25959  1.0000
  H   H25       1.0  0.30376  0.59792  0.34259  1.0000
  H   H26       1.0  0.30415  0.70973  0.36481  1.0000
  H   H27       1.0  0.41490  0.70995  0.32121  1.0000
  C   C37       1.0  0.71726  0.35902  0.34488  1.0000
  C   C38       1.0  0.69433  0.37982  0.34316  1.0000
  C   C39       1.0  0.65058  0.35855  0.34121  1.0000
  C   C40       1.0  0.62978  0.31482  0.34055  1.0000
  C   C41       1.0  0.65113  0.29246  0.34279  1.0000
  C   C42       1.0  0.69482  0.31528  0.34512  1.0000
  C   C43       1.0  0.62817  0.38054  0.34068  1.0000
  C   C44       1.0  0.64214  0.41746  0.29079  1.0000
  C   C45       1.0  0.62051  0.43932  0.29159  1.0000
  C   C46       1.0  0.58354  0.42513  0.34140  1.0000
  C   C47       1.0  0.56938  0.38798  0.39056  1.0000
  C   C48       1.0  0.59128  0.36640  0.39072  1.0000
  C   C49       1.0  0.76165  0.38144  0.34655  1.0000
  C   C50       1.0  0.78390  0.41797  0.39798  1.0000
  C   C51       1.0  0.82737  0.44001  0.39927  1.0000
  C   C52       1.0  0.85083  0.42640  0.35013  1.0000
  C   C53       1.0  0.82853  0.38980  0.29884  1.0000
  C   C54       1.0  0.78506  0.36802  0.29667  1.0000
  C   C55       1.0  0.62923  0.24817  0.34312  1.0000
  C   C56       1.0  0.64107  0.22575  0.40081  1.0000
  C   C57       1.0  0.61951  0.18228  0.40143  1.0000
  C   C58       1.0  0.58518  0.15927  0.34429  1.0000
  C   C59       1.0  0.57339  0.18168  0.28643  1.0000
  C   C60       1.0  0.59491  0.22516  0.28596  1.0000
  H   H28       1.0  0.84170  0.46665  0.43614  1.0000
  H   H29       1.0  0.76865  0.42877  0.43650  1.0000
  H   H30       1.0  0.84372  0.37806  0.26318  1.0000
  H   H31       1.0  0.77066  0.34224  0.25708  1.0000
  H   H32       1.0  0.66527  0.24092  0.44441  1.0000
  H   H33       1.0  0.62960  0.16755  0.44362  1.0000
  H   H34       1.0  0.58548  0.23990  0.24213  1.0000
  H   H35       1.0  0.54843  0.16649  0.24479  1.0000
  H   H36       1.0  0.58009  0.34034  0.42932  1.0000
  H   H37       1.0  0.54248  0.37575  0.42647  1.0000
  H   H38       1.0  0.63268  0.46632  0.25606  1.0000
  H   H39       1.0  0.66822  0.42880  0.25224  1.0000
  H   H40       1.0  0.70996  0.41140  0.34347  1.0000
  H   H41       1.0  0.71068  0.29956  0.34703  1.0000
  H   H42       1.0  0.59820  0.29874  0.33871  1.0000
  C   C61       1.0  0.56147  0.44750  0.34229  1.0000
  C   C62       1.0  0.51709  0.49223  0.34432  1.0000
  C   C63       1.0  0.51867  0.47109  0.42251  1.0000
  C   C64       1.0  0.54100  0.44964  0.42052  1.0000
  H   H43       1.0  0.54236  0.43555  0.47835  1.0000
  C   C65       1.0  0.49548  0.51495  0.34189  1.0000
  C   C66       1.0  0.45207  0.56076  0.33649  1.0000
  C   C67       1.0  0.47886  0.56512  0.40852  1.0000
  C   C68       1.0  0.50053  0.54334  0.41044  1.0000
  H   H44       1.0  0.48270  0.58398  0.46180  1.0000
  H   H45       1.0  0.52038  0.54872  0.46271  1.0000
  N   N1        1.0  0.49665  0.47006  0.50100  1.0000
  O   O1        1.0  0.52023  0.48528  0.56764  1.0000
  O   O2        1.0  0.46907  0.43388  0.52016  1.0000
  C   C69       1.0  0.56310  0.11501  0.34530  1.0000
  C   C70       1.0  0.51886  0.02649  0.34762  1.0000
  C   C71       1.0  0.53154  0.04896  0.42952  1.0000
  C   C72       1.0  0.55340  0.09273  0.42717  1.0000
  H   H46       1.0  0.56183  0.10840  0.48692  1.0000
  C   C73       1.0  0.49653  0.98251  0.34598  1.0000
  C   C74       1.0  0.45196  0.89429  0.34407  1.0000
  C   C75       1.0  0.43444  0.91672  0.38208  1.0000
  C   C76       1.0  0.45655  0.96020  0.38375  1.0000
  H   H47       1.0  0.40567  0.90153  0.41050  1.0000
  H   H48       1.0  0.44305  0.97548  0.41214  1.0000
  N   N2        1.0  0.52329  0.02736  0.51211  1.0000
  O   O3        1.0  0.50170  0.03569  0.56329  1.0000
  O   O4        1.0  0.55612  0.03562  0.55224  1.0000
  C   C77       1.0  0.89524  0.44860  0.35258  1.0000
  C   C78       1.0  0.98431  0.49339  0.35789  1.0000
  C   C79       1.0  0.96092  0.49082  0.43564  1.0000
  C   C80       1.0  0.91717  0.46830  0.43201  1.0000
  H   H49       1.0  0.90123  0.46624  0.48951  1.0000
  C   C81       1.0  0.02866  0.51540  0.35704  1.0000
  C   C82       1.0  0.11794  0.56007  0.35534  1.0000
  C   C83       1.0  0.09517  0.53229  0.42568  1.0000
  C   C84       1.0  0.05171  0.51003  0.42578  1.0000
  H   H50       1.0  0.10994  0.52819  0.47911  1.0000
  H   H51       1.0  0.03702  0.48957  0.47696  1.0000
  N   N3        1.0  0.98120  0.51204  0.51539  1.0000
  O   O5        1.0  0.97246  0.48777  0.58084  1.0000
  O   O6        1.0  0.97223  0.53925  0.53563  1.0000
