data_image0
_chemical_formula_structural       C4HNO2C4HNO2C4HNO2C4HNO2C4HNO2C4HNO2C2H2C2H2C2H2C2H2C2H2C2H2C4HNO2C4HNO2C4HNO2C4HNO2C4HNO2C4HNO2CNCNCNCNCNCNCNCNCNCNCNCNCNCNCNCNCNCNCNCNCNCNCNCNCNCNCNCNCNCNCNCNCNCNCNCNC2H2C2H2C2H2C2H2C2H2C2H2C4HNO2C4HNO2C4HNO2C4HNO2C4HNO2C4HNO2C2H2C2H2C2H2C2H2C2H2C2H2
_chemical_formula_sum              "C144 H54 N54 O36"
_cell_length_a       39.4156
_cell_length_b       39.4155
_cell_length_c       14.8545
_cell_angle_alpha    90
_cell_angle_beta     90
_cell_angle_gamma    120

_space_group_name_H-M_alt    "P 1"
_space_group_IT_number       1

loop_
  _space_group_symop_operation_xyz
  'x, y, z'

loop_
  _atom_site_type_symbol
  _atom_site_label
  _atom_site_symmetry_multiplicity
  _atom_site_fract_x
  _atom_site_fract_y
  _atom_site_fract_z
  _atom_site_occupancy
  C   C1        1.0  0.27435  0.46471  0.32661  1.0000
  C   C2        1.0  0.23844  0.42938  0.31455  1.0000
  C   C3        1.0  0.20161  0.42797  0.31407  1.0000
  C   C4        1.0  0.19965  0.46286  0.32676  1.0000
  H   H1        1.0  0.23879  0.40380  0.30552  1.0000
  N   N1        1.0  0.16686  0.39173  0.29998  1.0000
  O   O1        1.0  0.16675  0.37734  0.22440  1.0000
  O   O2        1.0  0.16175  0.36723  0.36023  1.0000
  C   C5        1.0  0.56594  0.83045  0.32654  1.0000
  C   C6        1.0  0.60126  0.82987  0.31437  1.0000
  C   C7        1.0  0.60267  0.79445  0.31391  1.0000
  C   C8        1.0  0.56779  0.75760  0.32676  1.0000
  H   H2        1.0  0.62683  0.85579  0.30519  1.0000
  N   N2        1.0  0.63889  0.79593  0.29964  1.0000
  O   O3        1.0  0.65320  0.81015  0.22397  1.0000
  O   O4        1.0  0.66345  0.81535  0.35975  1.0000
  C   C9        1.0  0.20014  0.75625  0.32654  1.0000
  C   C10       1.0  0.20072  0.79216  0.31452  1.0000
  C   C11       1.0  0.23615  0.82899  0.31413  1.0000
  C   C12       1.0  0.27300  0.83094  0.32686  1.0000
  H   H3        1.0  0.17480  0.79183  0.30546  1.0000
  N   N3        1.0  0.23468  0.86375  0.30006  1.0000
  O   O5        1.0  0.22044  0.86390  0.22446  1.0000
  O   O6        1.0  0.21527  0.86885  0.36029  1.0000
  C   C13       1.0  0.75260  0.56958  0.32650  1.0000
  C   C14       1.0  0.78851  0.60491  0.31440  1.0000
  C   C15       1.0  0.82534  0.60631  0.31394  1.0000
  C   C16       1.0  0.82730  0.57142  0.32672  1.0000
  H   H4        1.0  0.78816  0.63048  0.30527  1.0000
  N   N4        1.0  0.86009  0.64254  0.29975  1.0000
  O   O7        1.0  0.86019  0.65688  0.22411  1.0000
  O   O8        1.0  0.86521  0.66708  0.35991  1.0000
  C   C17       1.0  0.46101  0.20380  0.32667  1.0000
  C   C18       1.0  0.42568  0.20439  0.31460  1.0000
  C   C19       1.0  0.42429  0.23982  0.31413  1.0000
  C   C20       1.0  0.45918  0.27666  0.32682  1.0000
  H   H5        1.0  0.40010  0.17846  0.30556  1.0000
  N   N5        1.0  0.38805  0.23834  0.30002  1.0000
  O   O9        1.0  0.37368  0.22408  0.22442  1.0000
  O   O10       1.0  0.36354  0.21895  0.36024  1.0000
  C   C21       1.0  0.82674  0.27797  0.32652  1.0000
  C   C22       1.0  0.82616  0.24207  0.31440  1.0000
  C   C23       1.0  0.79074  0.20523  0.31396  1.0000
  C   C24       1.0  0.75389  0.20326  0.32677  1.0000
  H   H6        1.0  0.85208  0.24241  0.30526  1.0000
  N   N6        1.0  0.79222  0.17048  0.29975  1.0000
  O   O11       1.0  0.80645  0.17038  0.22411  1.0000
  O   O12       1.0  0.81164  0.16536  0.35990  1.0000
  C   C25       1.0  0.16670  0.57481  0.31492  1.0000
  C   C26       1.0  0.16732  0.61089  0.31374  1.0000
  H   H7        1.0  0.18974  0.57366  0.28625  1.0000
  H   H8        1.0  0.19076  0.63461  0.28474  1.0000
  C   C27       1.0  0.45583  0.61269  0.31483  1.0000
  C   C28       1.0  0.41973  0.57725  0.31376  1.0000
  H   H9        1.0  0.45697  0.63690  0.28624  1.0000
  H   H10       1.0  0.39601  0.57697  0.28479  1.0000
  C   C29       1.0  0.41790  0.86387  0.31498  1.0000
  C   C30       1.0  0.45336  0.86325  0.31374  1.0000
  H   H11       1.0  0.39372  0.84085  0.28623  1.0000
  H   H12       1.0  0.45365  0.83984  0.28463  1.0000
  C   C31       1.0  0.86023  0.45946  0.31479  1.0000
  C   C32       1.0  0.85958  0.42336  0.31367  1.0000
  H   H13       1.0  0.83718  0.46061  0.28622  1.0000
  H   H14       1.0  0.83613  0.39964  0.28470  1.0000
  C   C33       1.0  0.57115  0.42157  0.31494  1.0000
  C   C34       1.0  0.60724  0.45703  0.31374  1.0000
  H   H15       1.0  0.57000  0.39738  0.28622  1.0000
  H   H16       1.0  0.63095  0.45731  0.28470  1.0000
  C   C35       1.0  0.60898  0.17031  0.31487  1.0000
  C   C36       1.0  0.57354  0.17096  0.31378  1.0000
  H   H17       1.0  0.63319  0.19336  0.28626  1.0000
  H   H18       1.0  0.57326  0.19439  0.28481  1.0000
  C   C37       1.0  0.05497  0.40215  0.34352  1.0000
  C   C38       1.0  0.03367  0.38322  0.26494  1.0000
  C   C39       1.0  0.99199  0.36307  0.26341  1.0000
  C   C40       1.0  0.97093  0.36119  0.34266  1.0000
  H   H19       1.0  0.04845  0.38744  0.20550  1.0000
  N   N7        1.0  0.97096  0.34774  0.18226  1.0000
  O   O13       1.0  0.97996  0.37406  0.12410  1.0000
  O   O14       1.0  0.97718  0.32185  0.15028  1.0000
  C   C41       1.0  0.62848  0.67360  0.34367  1.0000
  C   C42       1.0  0.64729  0.67119  0.26493  1.0000
  C   C43       1.0  0.66735  0.64956  0.26341  1.0000
  C   C44       1.0  0.66932  0.63052  0.34284  1.0000
  H   H20       1.0  0.64285  0.68153  0.20540  1.0000
  N   N8        1.0  0.68252  0.64371  0.18219  1.0000
  O   O15       1.0  0.65612  0.62635  0.12426  1.0000
  O   O16       1.0  0.70841  0.67576  0.14991  1.0000
  C   C45       1.0  0.35699  0.97562  0.34385  1.0000
  C   C46       1.0  0.35927  0.99688  0.26530  1.0000
  C   C47       1.0  0.38078  0.03856  0.26376  1.0000
  C   C48       1.0  0.40001  0.05960  0.34299  1.0000
  H   H21       1.0  0.34866  0.98209  0.20588  1.0000
  N   N9        1.0  0.38643  0.05960  0.18266  1.0000
  O   O17       1.0  0.40369  0.05061  0.12437  1.0000
  O   O18       1.0  0.35428  0.05338  0.15086  1.0000
  C   C49       1.0  0.97197  0.63210  0.34374  1.0000
  C   C50       1.0  0.99320  0.65082  0.26491  1.0000
  C   C51       1.0  0.03488  0.67089  0.26331  1.0000
  C   C52       1.0  0.05592  0.67298  0.34276  1.0000
  H   H22       1.0  0.97840  0.64631  0.20538  1.0000
  N   N10       1.0  0.05587  0.68596  0.18200  1.0000
  O   O19       1.0  0.04682  0.65947  0.12428  1.0000
  O   O20       1.0  0.04968  0.71179  0.14948  1.0000
  C   C53       1.0  0.39851  0.36066  0.34367  1.0000
  C   C54       1.0  0.37955  0.36302  0.26512  1.0000
  C   C55       1.0  0.35939  0.38453  0.26360  1.0000
  C   C56       1.0  0.35755  0.40371  0.34286  1.0000
  H   H23       1.0  0.38375  0.35243  0.20567  1.0000
  N   N11       1.0  0.34403  0.39022  0.18248  1.0000
  O   O21       1.0  0.37033  0.40752  0.12427  1.0000
  O   O22       1.0  0.31814  0.35810  0.15055  1.0000
  C   C57       1.0  0.66989  0.05857  0.34373  1.0000
  C   C58       1.0  0.66756  0.03737  0.26500  1.0000
  C   C59       1.0  0.64595  0.99568  0.26340  1.0000
  C   C60       1.0  0.62687  0.97467  0.34278  1.0000
  H   H24       1.0  0.67794  0.05217  0.20551  1.0000
  N   N12       1.0  0.64016  0.97467  0.18219  1.0000
  O   O23       1.0  0.62284  0.98372  0.12417  1.0000
  O   O24       1.0  0.67224  0.98086  0.15005  1.0000
  C   C61       1.0  0.09388  0.43386  0.33703  1.0000
  N   N13       1.0  0.12712  0.43144  0.33119  1.0000
  C   C62       1.0  0.16365  0.46417  0.32985  1.0000
  N   N14       1.0  0.16511  0.49955  0.33588  1.0000
  C   C63       1.0  0.13287  0.50352  0.34289  1.0000
  N   N15       1.0  0.09790  0.46991  0.34260  1.0000
  C   C64       1.0  0.59677  0.68083  0.33708  1.0000
  N   N16       1.0  0.59920  0.71648  0.33123  1.0000
  C   C65       1.0  0.56647  0.72029  0.32987  1.0000
  N   N17       1.0  0.53110  0.68638  0.33587  1.0000
  C   C66       1.0  0.52712  0.65017  0.34291  1.0000
  N   N18       1.0  0.56073  0.64880  0.34266  1.0000
  C   C67       1.0  0.34978  0.93669  0.33745  1.0000
  N   N19       1.0  0.31413  0.90347  0.33145  1.0000
  C   C68       1.0  0.31031  0.86693  0.33007  1.0000
  N   N20       1.0  0.34422  0.86546  0.33607  1.0000
  C   C69       1.0  0.38043  0.89768  0.34314  1.0000
  N   N21       1.0  0.38180  0.93266  0.34295  1.0000
  C   C70       1.0  0.93305  0.60040  0.33722  1.0000
  N   N22       1.0  0.89982  0.60283  0.33127  1.0000
  C   C71       1.0  0.86328  0.57010  0.32985  1.0000
  N   N23       1.0  0.86182  0.53472  0.33585  1.0000
  C   C72       1.0  0.89405  0.53075  0.34292  1.0000
  N   N24       1.0  0.92903  0.56435  0.34274  1.0000
  C   C73       1.0  0.43021  0.35345  0.33716  1.0000
  N   N25       1.0  0.42778  0.31779  0.33129  1.0000
  C   C74       1.0  0.46051  0.31398  0.32993  1.0000
  N   N26       1.0  0.49589  0.34789  0.33595  1.0000
  C   C75       1.0  0.49987  0.38410  0.34298  1.0000
  N   N27       1.0  0.46626  0.38547  0.34272  1.0000
  C   C76       1.0  0.67712  0.09750  0.33715  1.0000
  N   N28       1.0  0.71277  0.13073  0.33127  1.0000
  C   C77       1.0  0.71658  0.16727  0.32989  1.0000
  N   N29       1.0  0.68267  0.16873  0.33590  1.0000
  C   C78       1.0  0.64646  0.13650  0.34296  1.0000
  N   N30       1.0  0.64509  0.10152  0.34272  1.0000
  C   C79       1.0  0.43205  0.09853  0.33851  1.0000
  N   N31       1.0  0.42956  0.13173  0.33145  1.0000
  C   C80       1.0  0.46246  0.16811  0.32935  1.0000
  N   N32       1.0  0.49790  0.16978  0.33394  1.0000
  C   C81       1.0  0.50167  0.13746  0.34099  1.0000
  N   N33       1.0  0.46810  0.10236  0.34331  1.0000
  C   C82       1.0  0.67626  0.59852  0.33826  1.0000
  N   N34       1.0  0.71196  0.60102  0.33123  1.0000
  C   C83       1.0  0.71545  0.56813  0.32912  1.0000
  N   N35       1.0  0.68169  0.53268  0.33378  1.0000
  C   C84       1.0  0.64560  0.52891  0.34085  1.0000
  N   N36       1.0  0.64405  0.56247  0.34313  1.0000
  C   C85       1.0  0.93201  0.35430  0.33817  1.0000
  N   N37       1.0  0.89881  0.31861  0.33118  1.0000
  C   C86       1.0  0.86242  0.31512  0.32914  1.0000
  N   N38       1.0  0.86075  0.34889  0.33377  1.0000
  C   C87       1.0  0.89307  0.38498  0.34078  1.0000
  N   N39       1.0  0.92818  0.38652  0.34303  1.0000
  C   C88       1.0  0.59486  0.93573  0.33816  1.0000
  N   N40       1.0  0.59736  0.90253  0.33121  1.0000
  C   C89       1.0  0.56447  0.86614  0.32916  1.0000
  N   N41       1.0  0.52903  0.86445  0.33380  1.0000
  C   C90       1.0  0.52524  0.89676  0.34082  1.0000
  N   N42       1.0  0.55880  0.93188  0.34307  1.0000
  C   C91       1.0  0.35067  0.43575  0.33844  1.0000
  N   N43       1.0  0.31499  0.43328  0.33137  1.0000
  C   C92       1.0  0.31150  0.46617  0.32929  1.0000
  N   N44       1.0  0.34527  0.50161  0.33390  1.0000
  C   C93       1.0  0.38135  0.50538  0.34095  1.0000
  N   N45       1.0  0.38289  0.47181  0.34325  1.0000
  C   C94       1.0  0.09485  0.67992  0.33820  1.0000
  N   N46       1.0  0.12805  0.71561  0.33123  1.0000
  C   C95       1.0  0.16444  0.71911  0.32914  1.0000
  N   N47       1.0  0.16611  0.68534  0.33376  1.0000
  C   C96       1.0  0.13380  0.64925  0.34079  1.0000
  N   N48       1.0  0.09869  0.64770  0.34305  1.0000
  C   C97       1.0  0.23587  0.49814  0.33821  1.0000
  C   C98       1.0  0.27196  0.49909  0.33801  1.0000
  H   H25       1.0  0.23676  0.52427  0.34820  1.0000
  H   H26       1.0  0.29672  0.52567  0.34783  1.0000
  C   C99       1.0  0.53252  0.75856  0.33839  1.0000
  C   C100      1.0  0.53158  0.79370  0.33815  1.0000
  H   H27       1.0  0.50639  0.73331  0.34848  1.0000
  H   H28       1.0  0.50500  0.79187  0.34806  1.0000
  C   C101      1.0  0.27203  0.79470  0.33827  1.0000
  C   C102      1.0  0.23689  0.75862  0.33799  1.0000
  H   H29       1.0  0.29728  0.79381  0.34830  1.0000
  H   H30       1.0  0.23871  0.73386  0.34779  1.0000
  C   C103      1.0  0.79107  0.53615  0.33825  1.0000
  C   C104      1.0  0.75498  0.53521  0.33800  1.0000
  H   H31       1.0  0.79018  0.51001  0.34828  1.0000
  H   H32       1.0  0.73022  0.50863  0.34785  1.0000
  C   C105      1.0  0.49445  0.27570  0.33830  1.0000
  C   C106      1.0  0.49539  0.24056  0.33809  1.0000
  H   H33       1.0  0.52059  0.30095  0.34830  1.0000
  H   H34       1.0  0.52197  0.24238  0.34793  1.0000
  C   C107      1.0  0.75484  0.23949  0.33833  1.0000
  C   C108      1.0  0.78998  0.27558  0.33806  1.0000
  H   H35       1.0  0.72959  0.24037  0.34837  1.0000
  H   H36       1.0  0.78816  0.30033  0.34793  1.0000
  C   C109      1.0  0.13534  0.61395  0.34682  1.0000
  C   C110      1.0  0.10377  0.58003  0.38526  1.0000
  C   C111      1.0  0.10296  0.54378  0.38849  1.0000
  C   C112      1.0  0.13429  0.54041  0.35001  1.0000
  H   H37       1.0  0.08063  0.58139  0.41268  1.0000
  N   N49       1.0  0.07114  0.51141  0.43169  1.0000
  O   O25       1.0  0.03926  0.50080  0.39195  1.0000
  O   O26       1.0  0.06788  0.51812  0.51302  1.0000
  C   C113      1.0  0.41665  0.54222  0.34694  1.0000
  C   C114      1.0  0.45058  0.54457  0.38537  1.0000
  C   C115      1.0  0.48684  0.58000  0.38857  1.0000
  C   C116      1.0  0.49021  0.61469  0.35001  1.0000
  H   H38       1.0  0.44920  0.52007  0.41288  1.0000
  N   N50       1.0  0.51919  0.58056  0.43186  1.0000
  O   O27       1.0  0.52980  0.55925  0.39223  1.0000
  O   O28       1.0  0.51247  0.57063  0.51320  1.0000
  C   C117      1.0  0.48840  0.89521  0.34692  1.0000
  C   C118      1.0  0.48604  0.92675  0.38551  1.0000
  C   C119      1.0  0.45060  0.92755  0.38880  1.0000
  C   C120      1.0  0.41591  0.89626  0.35022  1.0000
  H   H39       1.0  0.51054  0.94987  0.41300  1.0000
  N   N51       1.0  0.45004  0.95934  0.43216  1.0000
  O   O29       1.0  0.47133  0.99126  0.39256  1.0000
  O   O30       1.0  0.45999  0.96253  0.51349  1.0000
  C   C121      1.0  0.89154  0.42028  0.34682  1.0000
  C   C122      1.0  0.92311  0.45420  0.38527  1.0000
  C   C123      1.0  0.92393  0.49045  0.38852  1.0000
  C   C124      1.0  0.89263  0.49384  0.34997  1.0000
  H   H40       1.0  0.94623  0.45281  0.41276  1.0000
  N   N52       1.0  0.95574  0.52280  0.43182  1.0000
  O   O31       1.0  0.98764  0.53342  0.39217  1.0000
  O   O32       1.0  0.95895  0.51606  0.51315  1.0000
  C   C125      1.0  0.61031  0.49206  0.34689  1.0000
  C   C126      1.0  0.57639  0.48971  0.38541  1.0000
  C   C127      1.0  0.54014  0.45427  0.38865  1.0000
  C   C128      1.0  0.53677  0.41958  0.35009  1.0000
  H   H41       1.0  0.57777  0.51421  0.41288  1.0000
  N   N53       1.0  0.50779  0.45371  0.43192  1.0000
  O   O33       1.0  0.49717  0.47500  0.39226  1.0000
  O   O34       1.0  0.51452  0.46366  0.51326  1.0000
  C   C129      1.0  0.53851  0.13900  0.34698  1.0000
  C   C130      1.0  0.54086  0.10743  0.38543  1.0000
  C   C131      1.0  0.57630  0.10662  0.38865  1.0000
  C   C132      1.0  0.61098  0.13792  0.35006  1.0000
  H   H42       1.0  0.51637  0.08432  0.41295  1.0000
  N   N54       1.0  0.57686  0.07482  0.43195  1.0000
  O   O35       1.0  0.55556  0.04291  0.39233  1.0000
  O   O36       1.0  0.56693  0.07162  0.51330  1.0000
  C   C133      1.0  0.99236  0.37870  0.42217  1.0000
  C   C134      1.0  0.03353  0.39892  0.42246  1.0000
  H   H43       1.0  0.97827  0.38038  0.47860  1.0000
  H   H44       1.0  0.04776  0.41450  0.47896  1.0000
  C   C135      1.0  0.65197  0.63457  0.42243  1.0000
  C   C136      1.0  0.63183  0.65561  0.42281  1.0000
  H   H45       1.0  0.65052  0.61901  0.47906  1.0000
  H   H46       1.0  0.61637  0.65442  0.47939  1.0000
  C   C137      1.0  0.39620  0.03820  0.42249  1.0000
  C   C138      1.0  0.37525  0.99703  0.42278  1.0000
  H   H47       1.0  0.41201  0.05230  0.47887  1.0000
  H   H48       1.0  0.37665  0.98280  0.47924  1.0000
  C   C139      1.0  0.03454  0.65573  0.42244  1.0000
  C   C140      1.0  0.99338  0.63558  0.42285  1.0000
  H   H49       1.0  0.04868  0.65436  0.47911  1.0000
  H   H50       1.0  0.97913  0.62018  0.47952  1.0000
  C   C141      1.0  0.37509  0.39985  0.42236  1.0000
  C   C142      1.0  0.39531  0.37889  0.42261  1.0000
  H   H51       1.0  0.37678  0.41563  0.47878  1.0000
  H   H52       1.0  0.41091  0.38027  0.47909  1.0000
  C   C143      1.0  0.63083  0.99603  0.42240  1.0000
  C   C144      1.0  0.65184  0.03720  0.42281  1.0000
  H   H53       1.0  0.61522  0.98189  0.47896  1.0000
  H   H54       1.0  0.65060  0.05145  0.47937  1.0000
