data_image0
_chemical_formula_structural       C3HCNCHC2HNCHCNCHC4HNCHNC2HC2HNC4HC3NHCHC3NHCHC2NCNCH4C2H4C4HNC2NHCHC2NHCH2C2NCNCH4C2NCH3CHC2HC4H2N2C2NHCHC2NHCHC2HN2C2NCH3CHC2H5C4HNC2NHCHC2HCHN2C2NCH3CHC2NCH3CHC4H2C4H2N2C2NHCH
_chemical_formula_sum              "C104 H72 N32"
_cell_length_a       31.4096
_cell_length_b       31.4096
_cell_length_c       14.8979
_cell_angle_alpha    90
_cell_angle_beta     90
_cell_angle_gamma    90

_space_group_name_H-M_alt    "P 1"
_space_group_IT_number       1

loop_
  _space_group_symop_operation_xyz
  'x, y, z'

loop_
  _atom_site_type_symbol
  _atom_site_label
  _atom_site_symmetry_multiplicity
  _atom_site_fract_x
  _atom_site_fract_y
  _atom_site_fract_z
  _atom_site_occupancy
  C   C1        1.0  0.01677  0.06042  0.31876  1.0000
  C   C2        1.0  0.02653  0.01590  0.32062  1.0000
  C   C3        1.0  0.07109  0.00637  0.32245  1.0000
  H   H1        1.0  0.48625  0.07072  0.31613  1.0000
  C   C4        1.0  0.23994  0.04072  0.32254  1.0000
  N   N1        1.0  0.28325  0.03968  0.32226  1.0000
  C   C5        1.0  0.35087  0.00542  0.32230  1.0000
  H   H2        1.0  0.36533  0.03460  0.32180  1.0000
  C   C6        1.0  0.09104  0.08106  0.32154  1.0000
  C   C7        1.0  0.10306  0.03807  0.32258  1.0000
  H   H3        1.0  0.43912  0.02359  0.32403  1.0000
  N   N2        1.0  0.14554  0.03101  0.32319  1.0000
  C   C8        1.0  0.51677  0.06042  0.31876  1.0000
  H   H4        1.0  0.98625  0.07072  0.31613  1.0000
  C   C9        1.0  0.73994  0.04072  0.32254  1.0000
  N   N3        1.0  0.78325  0.03968  0.32226  1.0000
  C   C10       1.0  0.85087  0.00542  0.32230  1.0000
  H   H5        1.0  0.86533  0.03460  0.32180  1.0000
  C   C11       1.0  0.52653  0.01590  0.32062  1.0000
  C   C12       1.0  0.59104  0.08106  0.32154  1.0000
  C   C13       1.0  0.60306  0.03807  0.32258  1.0000
  C   C14       1.0  0.57109  0.00637  0.32245  1.0000
  H   H6        1.0  0.93911  0.02359  0.32403  1.0000
  N   N4        1.0  0.64554  0.03101  0.32319  1.0000
  C   C15       1.0  0.04803  0.09281  0.31953  1.0000
  H   H7        1.0  0.03400  0.42817  0.31755  1.0000
  N   N5        1.0  0.04025  0.13527  0.31841  1.0000
  C   C16       1.0  0.00660  0.20353  0.31597  1.0000
  C   C17       1.0  0.00444  0.15897  0.31594  1.0000
  H   H8        1.0  0.08168  0.47586  0.32417  1.0000
  C   C18       1.0  0.01677  0.56041  0.31876  1.0000
  C   C19       1.0  0.04803  0.59281  0.31953  1.0000
  H   H9        1.0  0.03400  0.92816  0.31755  1.0000
  N   N6        1.0  0.04025  0.63526  0.31841  1.0000
  C   C20       1.0  0.00660  0.70352  0.31597  1.0000
  C   C21       1.0  0.00444  0.65897  0.31594  1.0000
  C   C22       1.0  0.02653  0.51590  0.32062  1.0000
  C   C23       1.0  0.07109  0.50637  0.32245  1.0000
  H   H10       1.0  0.08168  0.97586  0.32417  1.0000
  C   C24       1.0  0.00348  0.43874  0.31909  1.0000
  C   C25       1.0  0.00835  0.29304  0.31655  1.0000
  C   C26       1.0  0.04589  0.26802  0.31936  1.0000
  N   N7        1.0  0.04412  0.22487  0.31911  1.0000
  H   H11       1.0  0.07534  0.28188  0.32201  1.0000
  C   C27       1.0  0.01268  0.33793  0.31762  1.0000
  H   H12       1.0  0.04240  0.35126  0.31960  1.0000
  C   C28       1.0  0.00348  0.93874  0.31909  1.0000
  C   C29       1.0  0.00835  0.79304  0.31655  1.0000
  C   C30       1.0  0.04589  0.76802  0.31936  1.0000
  N   N8        1.0  0.04412  0.72487  0.31911  1.0000
  H   H13       1.0  0.07534  0.78188  0.32201  1.0000
  C   C31       1.0  0.01268  0.83793  0.31762  1.0000
  H   H14       1.0  0.04240  0.85126  0.31960  1.0000
  C   C32       1.0  0.47178  0.40678  0.31868  1.0000
  C   C33       1.0  0.50348  0.43874  0.31909  1.0000
  N   N9        1.0  0.47885  0.36430  0.31765  1.0000
  C   C34       1.0  0.96919  0.26991  0.31296  1.0000
  N   N10       1.0  0.97023  0.22660  0.31289  1.0000
  C   C35       1.0  0.92609  0.28896  0.30858  1.0000
  H   H15       1.0  0.92324  0.30878  0.24875  1.0000
  H   H16       1.0  0.92023  0.30816  0.36835  1.0000
  H   H17       1.0  0.90126  0.26463  0.30525  1.0000
  H   H18       1.0  0.97528  0.14452  0.31398  1.0000
  C   C36       1.0  0.30632  0.00326  0.32282  1.0000
  C   C37       1.0  0.22091  0.08388  0.32145  1.0000
  H   H19       1.0  0.20135  0.08786  0.26154  1.0000
  H   H20       1.0  0.24525  0.10874  0.32066  1.0000
  H   H21       1.0  0.20145  0.08860  0.38130  1.0000
  H   H22       1.0  0.11403  0.10428  0.32172  1.0000
  C   C38       1.0  0.49395  0.48331  0.32043  1.0000
  C   C39       1.0  0.44942  0.49307  0.32165  1.0000
  C   C40       1.0  0.41703  0.46180  0.32096  1.0000
  C   C41       1.0  0.42879  0.41880  0.31943  1.0000
  H   H23       1.0  0.40557  0.39580  0.31905  1.0000
  N   N11       1.0  0.37458  0.46959  0.32166  1.0000
  C   C42       1.0  0.50835  0.29304  0.31655  1.0000
  C   C43       1.0  0.54589  0.26802  0.31936  1.0000
  N   N12       1.0  0.54412  0.22487  0.31911  1.0000
  H   H24       1.0  0.57534  0.28188  0.32201  1.0000
  C   C44       1.0  0.51268  0.33793  0.31762  1.0000
  H   H25       1.0  0.54240  0.35126  0.31960  1.0000
  C   C45       1.0  0.21681  0.50153  0.32359  1.0000
  C   C46       1.0  0.24183  0.46397  0.32415  1.0000
  N   N13       1.0  0.28497  0.46573  0.32370  1.0000
  H   H26       1.0  0.22796  0.43450  0.32484  1.0000
  C   C47       1.0  0.17192  0.49719  0.32390  1.0000
  H   H27       1.0  0.15858  0.46745  0.32429  1.0000
  H   H28       1.0  0.48625  0.57072  0.31613  1.0000
  C   C48       1.0  0.47178  0.90678  0.31868  1.0000
  C   C49       1.0  0.50348  0.93874  0.31909  1.0000
  N   N14       1.0  0.47885  0.86430  0.31765  1.0000
  C   C50       1.0  0.96919  0.76992  0.31296  1.0000
  N   N15       1.0  0.97023  0.72661  0.31289  1.0000
  C   C51       1.0  0.92609  0.78896  0.30858  1.0000
  H   H29       1.0  0.92324  0.80878  0.24875  1.0000
  H   H30       1.0  0.92023  0.80816  0.36835  1.0000
  H   H31       1.0  0.90126  0.76463  0.30525  1.0000
  H   H32       1.0  0.97528  0.64452  0.31398  1.0000
  C   C52       1.0  0.23994  0.54072  0.32254  1.0000
  C   C53       1.0  0.30632  0.50327  0.32282  1.0000
  N   N16       1.0  0.28325  0.53968  0.32226  1.0000
  C   C54       1.0  0.22091  0.58388  0.32145  1.0000
  H   H33       1.0  0.20135  0.58786  0.26154  1.0000
  H   H34       1.0  0.24525  0.60874  0.32066  1.0000
  H   H35       1.0  0.20145  0.58860  0.38130  1.0000
  C   C55       1.0  0.35087  0.50543  0.32230  1.0000
  H   H36       1.0  0.36533  0.53460  0.32180  1.0000
  C   C56       1.0  0.09104  0.58106  0.32154  1.0000
  C   C57       1.0  0.10306  0.53807  0.32258  1.0000
  H   H37       1.0  0.11403  0.60428  0.32172  1.0000
  C   C58       1.0  0.49395  0.98331  0.32043  1.0000
  C   C59       1.0  0.44942  0.99307  0.32165  1.0000
  C   C60       1.0  0.41703  0.96181  0.32096  1.0000
  C   C61       1.0  0.42879  0.91880  0.31943  1.0000
  H   H38       1.0  0.43912  0.52359  0.32403  1.0000
  H   H39       1.0  0.40557  0.89580  0.31905  1.0000
  N   N17       1.0  0.37458  0.96959  0.32166  1.0000
  N   N18       1.0  0.14554  0.53101  0.32319  1.0000
  C   C62       1.0  0.50835  0.79304  0.31655  1.0000
  C   C63       1.0  0.54589  0.76802  0.31936  1.0000
  N   N19       1.0  0.54412  0.72487  0.31911  1.0000
  H   H40       1.0  0.57534  0.78188  0.32201  1.0000
  C   C64       1.0  0.51268  0.83793  0.31762  1.0000
  H   H41       1.0  0.54240  0.85126  0.31960  1.0000
  C   C65       1.0  0.21681  0.00153  0.32359  1.0000
  C   C66       1.0  0.24183  0.96397  0.32415  1.0000
  N   N20       1.0  0.28497  0.96573  0.32370  1.0000
  H   H42       1.0  0.22796  0.93449  0.32484  1.0000
  C   C67       1.0  0.17192  0.99719  0.32390  1.0000
  H   H43       1.0  0.15858  0.96745  0.32429  1.0000
  C   C68       1.0  0.54803  0.09281  0.31953  1.0000
  C   C69       1.0  0.97178  0.40678  0.31868  1.0000
  H   H44       1.0  0.53400  0.42817  0.31755  1.0000
  N   N21       1.0  0.97885  0.36430  0.31765  1.0000
  N   N22       1.0  0.54025  0.13527  0.31841  1.0000
  C   C70       1.0  0.46919  0.26991  0.31296  1.0000
  C   C71       1.0  0.50660  0.20353  0.31597  1.0000
  N   N23       1.0  0.47023  0.22660  0.31289  1.0000
  C   C72       1.0  0.42609  0.28896  0.30858  1.0000
  H   H45       1.0  0.42324  0.30878  0.24875  1.0000
  H   H46       1.0  0.42023  0.30816  0.36835  1.0000
  H   H47       1.0  0.40127  0.26463  0.30525  1.0000
  C   C73       1.0  0.50443  0.15897  0.31594  1.0000
  H   H48       1.0  0.47527  0.14452  0.31398  1.0000
  C   C74       1.0  0.80632  0.00326  0.32282  1.0000
  C   C75       1.0  0.72091  0.08388  0.32145  1.0000
  H   H49       1.0  0.70135  0.08786  0.26154  1.0000
  H   H50       1.0  0.74525  0.10874  0.32066  1.0000
  H   H51       1.0  0.70146  0.08860  0.38130  1.0000
  H   H52       1.0  0.58168  0.47586  0.32417  1.0000
  H   H53       1.0  0.61403  0.10428  0.32172  1.0000
  C   C76       1.0  0.99395  0.48331  0.32043  1.0000
  C   C77       1.0  0.94942  0.49307  0.32165  1.0000
  C   C78       1.0  0.91703  0.46180  0.32096  1.0000
  C   C79       1.0  0.92879  0.41880  0.31943  1.0000
  H   H54       1.0  0.90557  0.39580  0.31905  1.0000
  N   N24       1.0  0.87458  0.46959  0.32166  1.0000
  C   C80       1.0  0.71681  0.50153  0.32359  1.0000
  C   C81       1.0  0.74182  0.46397  0.32415  1.0000
  N   N25       1.0  0.78497  0.46573  0.32370  1.0000
  H   H55       1.0  0.72796  0.43450  0.32484  1.0000
  C   C82       1.0  0.67192  0.49719  0.32390  1.0000
  H   H56       1.0  0.65859  0.46745  0.32429  1.0000
  C   C83       1.0  0.51677  0.56041  0.31876  1.0000
  C   C84       1.0  0.54803  0.59281  0.31953  1.0000
  H   H57       1.0  0.98625  0.57072  0.31613  1.0000
  C   C85       1.0  0.97178  0.90678  0.31868  1.0000
  H   H58       1.0  0.53400  0.92816  0.31755  1.0000
  N   N26       1.0  0.97885  0.86430  0.31765  1.0000
  N   N27       1.0  0.54025  0.63526  0.31841  1.0000
  C   C86       1.0  0.46919  0.76992  0.31296  1.0000
  C   C87       1.0  0.50660  0.70352  0.31597  1.0000
  N   N28       1.0  0.47023  0.72661  0.31289  1.0000
  C   C88       1.0  0.42609  0.78896  0.30858  1.0000
  H   H59       1.0  0.42324  0.80878  0.24875  1.0000
  H   H60       1.0  0.42023  0.80816  0.36835  1.0000
  H   H61       1.0  0.40127  0.76463  0.30525  1.0000
  C   C89       1.0  0.50443  0.65897  0.31594  1.0000
  H   H62       1.0  0.47527  0.64452  0.31398  1.0000
  C   C90       1.0  0.73994  0.54072  0.32254  1.0000
  C   C91       1.0  0.80632  0.50327  0.32282  1.0000
  N   N29       1.0  0.78325  0.53968  0.32226  1.0000
  C   C92       1.0  0.72091  0.58388  0.32145  1.0000
  H   H63       1.0  0.70135  0.58786  0.26154  1.0000
  H   H64       1.0  0.74525  0.60874  0.32066  1.0000
  H   H65       1.0  0.70146  0.58860  0.38130  1.0000
  C   C93       1.0  0.85087  0.50543  0.32230  1.0000
  H   H66       1.0  0.86533  0.53460  0.32180  1.0000
  C   C94       1.0  0.52653  0.51590  0.32062  1.0000
  C   C95       1.0  0.59104  0.58106  0.32154  1.0000
  C   C96       1.0  0.60306  0.53807  0.32258  1.0000
  C   C97       1.0  0.57109  0.50637  0.32245  1.0000
  H   H67       1.0  0.58168  0.97586  0.32417  1.0000
  H   H68       1.0  0.61403  0.60428  0.32172  1.0000
  C   C98       1.0  0.99395  0.98331  0.32043  1.0000
  C   C99       1.0  0.94942  0.99307  0.32165  1.0000
  C   C100      1.0  0.91703  0.96181  0.32096  1.0000
  C   C101      1.0  0.92879  0.91880  0.31943  1.0000
  H   H69       1.0  0.93911  0.52359  0.32403  1.0000
  H   H70       1.0  0.90557  0.89580  0.31905  1.0000
  N   N30       1.0  0.87458  0.96959  0.32166  1.0000
  N   N31       1.0  0.64554  0.53101  0.32319  1.0000
  C   C102      1.0  0.71681  0.00153  0.32359  1.0000
  C   C103      1.0  0.74182  0.96397  0.32415  1.0000
  N   N32       1.0  0.78497  0.96573  0.32370  1.0000
  H   H71       1.0  0.72796  0.93449  0.32484  1.0000
  C   C104      1.0  0.67192  0.99719  0.32390  1.0000
  H   H72       1.0  0.65859  0.96745  0.32429  1.0000
