data_image0
_chemical_formula_structural       C6H6N2C8H5CN2HNC8H5CN2HNC8H5CN2HNC3HNH2CHC3HNH2CHC3HNH2CHC3H2CHC3H2CHC3H2CHC12H5CNC2NHN2C10H6CNCN2C10H6CNCN2C10H6CNCN2C3H2CHC3H2CHC3H2CHC3HNH2CHC3HNH2CHC3HNH2CH
_chemical_formula_sum              "C132 H90 N30"
_cell_length_a       57.0756
_cell_length_b       57.0854
_cell_length_c       14.8472
_cell_angle_alpha    90
_cell_angle_beta     90
_cell_angle_gamma    119.978

_space_group_name_H-M_alt    "P 1"
_space_group_IT_number       1

loop_
  _space_group_symop_operation_xyz
  'x, y, z'

loop_
  _atom_site_type_symbol
  _atom_site_label
  _atom_site_symmetry_multiplicity
  _atom_site_fract_x
  _atom_site_fract_y
  _atom_site_fract_z
  _atom_site_occupancy
  C   C1        1.0  0.97070  0.02849  0.34411  1.0000
  C   C2        1.0  0.93132  0.90027  0.33350  1.0000
  C   C3        1.0  0.94498  0.92876  0.33202  1.0000
  C   C4        1.0  0.94232  0.01445  0.35822  1.0000
  C   C5        1.0  0.92750  0.02815  0.36073  1.0000
  C   C6        1.0  0.94034  0.05635  0.34730  1.0000
  H   H1        1.0  0.91076  0.88987  0.32597  1.0000
  H   H2        1.0  0.93374  0.93798  0.32200  1.0000
  H   H3        1.0  0.93204  0.99399  0.36835  1.0000
  H   H4        1.0  0.90709  0.01728  0.37208  1.0000
  H   H5        1.0  0.11206  0.02309  0.32585  1.0000
  H   H6        1.0  0.06394  0.99795  0.32191  1.0000
  N   N1        1.0  0.97345  0.98716  0.34335  1.0000
  N   N2        1.0  0.92542  0.06838  0.35295  1.0000
  C   C7        1.0  0.46470  0.27671  0.33175  1.0000
  C   C8        1.0  0.36222  0.20560  0.32742  1.0000
  C   C9        1.0  0.33371  0.19146  0.32441  1.0000
  C   C10       1.0  0.50846  0.19713  0.32670  1.0000
  C   C11       1.0  0.49159  0.20841  0.32321  1.0000
  C   C12       1.0  0.49106  0.28799  0.29468  1.0000
  C   C13       1.0  0.50911  0.31597  0.29538  1.0000
  C   C14       1.0  0.50156  0.33378  0.33355  1.0000
  H   H7        1.0  0.32391  0.20164  0.30625  1.0000
  H   H8        1.0  0.50028  0.22822  0.30394  1.0000
  H   H9        1.0  0.52854  0.20917  0.31176  1.0000
  H   H10       1.0  0.49775  0.27591  0.26749  1.0000
  H   H11       1.0  0.52815  0.32314  0.26963  1.0000
  C   C15       1.0  0.44799  0.24807  0.33817  1.0000
  N   N3        1.0  0.46039  0.23317  0.34033  1.0000
  N   N4        1.0  0.42050  0.23420  0.34303  1.0000
  H   H12       1.0  0.37213  0.22565  0.31054  1.0000
  N   N5        1.0  0.52073  0.35961  0.33472  1.0000
  C   C16       1.0  0.72534  0.19043  0.33165  1.0000
  C   C17       1.0  0.79645  0.15906  0.32733  1.0000
  C   C18       1.0  0.81058  0.14467  0.32432  1.0000
  C   C19       1.0  0.80490  0.31373  0.32675  1.0000
  C   C20       1.0  0.79363  0.28559  0.32320  1.0000
  C   C21       1.0  0.71404  0.20551  0.29459  1.0000
  C   C22       1.0  0.68607  0.19561  0.29537  1.0000
  C   C23       1.0  0.66826  0.17027  0.33365  1.0000
  H   H13       1.0  0.80039  0.12470  0.30614  1.0000
  H   H14       1.0  0.77382  0.27448  0.30392  1.0000
  H   H15       1.0  0.79285  0.32177  0.31177  1.0000
  H   H16       1.0  0.72612  0.22427  0.26736  1.0000
  H   H17       1.0  0.67888  0.20747  0.26964  1.0000
  C   C24       1.0  0.75399  0.20237  0.33810  1.0000
  N   N6        1.0  0.76888  0.22965  0.34026  1.0000
  N   N7        1.0  0.76786  0.18875  0.34295  1.0000
  H   H18       1.0  0.77639  0.14893  0.31042  1.0000
  N   N8        1.0  0.64243  0.16364  0.33499  1.0000
  C   C25       1.0  0.81149  0.53720  0.33177  1.0000
  C   C26       1.0  0.84286  0.63966  0.32742  1.0000
  C   C27       1.0  0.85725  0.66816  0.32443  1.0000
  C   C28       1.0  0.68818  0.49353  0.32631  1.0000
  C   C29       1.0  0.71632  0.51040  0.32277  1.0000
  C   C30       1.0  0.79641  0.51083  0.29476  1.0000
  C   C31       1.0  0.80634  0.49278  0.29546  1.0000
  C   C32       1.0  0.83171  0.50032  0.33362  1.0000
  H   H19       1.0  0.87723  0.67794  0.30627  1.0000
  H   H20       1.0  0.72745  0.50172  0.30329  1.0000
  H   H21       1.0  0.68015  0.47347  0.31114  1.0000
  H   H22       1.0  0.77764  0.50415  0.26757  1.0000
  H   H23       1.0  0.79448  0.47374  0.26974  1.0000
  C   C33       1.0  0.79954  0.55392  0.33816  1.0000
  N   N9        1.0  0.77227  0.54155  0.34026  1.0000
  N   N10       1.0  0.81317  0.58140  0.34302  1.0000
  H   H24       1.0  0.85299  0.62973  0.31048  1.0000
  N   N11       1.0  0.83836  0.48114  0.33482  1.0000
  C   C34       1.0  0.23577  0.11852  0.27796  1.0000
  C   C35       1.0  0.20770  0.10426  0.25749  1.0000
  C   C36       1.0  0.18869  0.09133  0.32863  1.0000
  H   H25       1.0  0.24938  0.12713  0.22639  1.0000
  N   N12       1.0  0.20002  0.10334  0.17009  1.0000
  H   H26       1.0  0.21329  0.11247  0.12253  1.0000
  H   H27       1.0  0.18113  0.09458  0.15255  1.0000
  C   C37       1.0  0.16127  0.07402  0.31246  1.0000
  H   H28       1.0  0.15617  0.05926  0.26777  1.0000
  C   C38       1.0  0.88347  0.11957  0.27795  1.0000
  C   C39       1.0  0.89771  0.10573  0.25750  1.0000
  C   C40       1.0  0.91060  0.09960  0.32867  1.0000
  H   H29       1.0  0.87489  0.12460  0.22637  1.0000
  N   N13       1.0  0.89863  0.09898  0.17009  1.0000
  H   H30       1.0  0.88953  0.10315  0.12252  1.0000
  H   H31       1.0  0.90738  0.08882  0.15257  1.0000
  C   C41       1.0  0.92790  0.08947  0.31252  1.0000
  H   H32       1.0  0.94266  0.09910  0.26787  1.0000
  C   C42       1.0  0.88234  0.76613  0.27799  1.0000
  C   C43       1.0  0.89617  0.79419  0.25751  1.0000
  C   C44       1.0  0.90230  0.81321  0.32867  1.0000
  H   H33       1.0  0.87730  0.75252  0.22641  1.0000
  N   N14       1.0  0.90292  0.80187  0.17010  1.0000
  H   H34       1.0  0.89875  0.78859  0.12253  1.0000
  H   H35       1.0  0.91308  0.82076  0.15256  1.0000
  C   C45       1.0  0.91243  0.84063  0.31250  1.0000
  H   H36       1.0  0.90279  0.84576  0.26782  1.0000
  C   C46       1.0  0.58871  0.14762  0.26662  1.0000
  C   C47       1.0  0.56682  0.15177  0.25058  1.0000
  C   C48       1.0  0.55192  0.15413  0.32255  1.0000
  H   H37       1.0  0.59937  0.14679  0.21232  1.0000
  H   H38       1.0  0.56245  0.15398  0.18526  1.0000
  C   C49       1.0  0.53292  0.16206  0.30445  1.0000
  H   H39       1.0  0.53470  0.17159  0.24640  1.0000
  C   C50       1.0  0.85442  0.44345  0.26658  1.0000
  C   C51       1.0  0.85027  0.41741  0.25057  1.0000
  C   C52       1.0  0.84788  0.40016  0.32256  1.0000
  H   H40       1.0  0.85527  0.45494  0.21226  1.0000
  H   H41       1.0  0.84809  0.41084  0.18525  1.0000
  C   C53       1.0  0.83996  0.37324  0.30447  1.0000
  H   H42       1.0  0.83042  0.36548  0.24642  1.0000
  C   C54       1.0  0.55843  0.41333  0.26654  1.0000
  C   C55       1.0  0.58447  0.43521  0.25051  1.0000
  C   C56       1.0  0.60173  0.45007  0.32250  1.0000
  H   H43       1.0  0.54694  0.40271  0.21224  1.0000
  H   H44       1.0  0.59103  0.43960  0.18519  1.0000
  C   C57       1.0  0.62865  0.46907  0.30437  1.0000
  H   H45       1.0  0.63640  0.46730  0.24626  1.0000
  C   C58       1.0  0.97339  0.94438  0.34408  1.0000
  C   C59       1.0  0.05750  0.03116  0.34411  1.0000
  C   C60       1.0  0.98744  0.93004  0.35819  1.0000
  C   C61       1.0  0.97375  0.90153  0.36069  1.0000
  C   C62       1.0  0.94555  0.88619  0.34720  1.0000
  C   C63       1.0  0.96865  0.07057  0.33353  1.0000
  C   C64       1.0  0.98349  0.05690  0.33205  1.0000
  C   C65       1.0  0.07181  0.05953  0.35826  1.0000
  C   C66       1.0  0.10032  0.07436  0.36077  1.0000
  C   C67       1.0  0.11570  0.06153  0.34719  1.0000
  C   C68       1.0  0.10164  0.03323  0.33346  1.0000
  C   C69       1.0  0.07314  0.01838  0.33198  1.0000
  H   H46       1.0  0.98463  0.89199  0.37206  1.0000
  H   H47       1.0  0.00393  0.06813  0.32202  1.0000
  H   H48       1.0  0.97880  0.09112  0.32603  1.0000
  H   H49       1.0  0.06161  0.06980  0.36852  1.0000
  H   H50       1.0  0.10984  0.09476  0.37218  1.0000
  C   C70       1.0  0.02852  0.01599  0.34330  1.0000
  N   N15       1.0  0.01343  0.02841  0.34336  1.0000
  C   C71       1.0  0.98586  0.01467  0.34329  1.0000
  C   C72       1.0  0.98720  0.97335  0.34328  1.0000
  N   N16       1.0  0.01472  0.98843  0.34335  1.0000
  H   H51       1.0  0.00791  0.94022  0.36837  1.0000
  N   N17       1.0  0.14264  0.07647  0.35289  1.0000
  N   N18       1.0  0.93352  0.85924  0.35289  1.0000
  C   C73       1.0  0.46377  0.19323  0.34657  1.0000
  C   C74       1.0  0.37693  0.19242  0.34995  1.0000
  C   C75       1.0  0.31872  0.16373  0.34605  1.0000
  C   C76       1.0  0.33314  0.15036  0.36867  1.0000
  C   C77       1.0  0.36166  0.16443  0.37035  1.0000
  C   C78       1.0  0.45356  0.16594  0.37256  1.0000
  C   C79       1.0  0.47061  0.15459  0.37666  1.0000
  C   C80       1.0  0.49819  0.16994  0.35251  1.0000
  C   C81       1.0  0.47506  0.32298  0.36829  1.0000
  C   C82       1.0  0.45680  0.29480  0.36678  1.0000
  H   H52       1.0  0.32295  0.13007  0.38208  1.0000
  H   H53       1.0  0.37115  0.15381  0.38646  1.0000
  H   H54       1.0  0.43376  0.15428  0.39130  1.0000
  H   H55       1.0  0.46279  0.13501  0.39764  1.0000
  H   H56       1.0  0.46906  0.33547  0.39651  1.0000
  H   H57       1.0  0.43810  0.28753  0.39521  1.0000
  C   C83       1.0  0.44757  0.20590  0.34629  1.0000
  N   N19       1.0  0.42004  0.19295  0.35077  1.0000
  C   C84       1.0  0.40593  0.20657  0.34907  1.0000
  N   N20       1.0  0.51485  0.15998  0.36115  1.0000
  N   N21       1.0  0.29179  0.15104  0.33841  1.0000
  C   C85       1.0  0.80882  0.27295  0.34654  1.0000
  C   C86       1.0  0.80964  0.18694  0.34988  1.0000
  C   C87       1.0  0.83831  0.15739  0.34598  1.0000
  C   C88       1.0  0.85169  0.18516  0.36863  1.0000
  C   C89       1.0  0.83763  0.19962  0.37031  1.0000
  C   C90       1.0  0.83611  0.29003  0.37251  1.0000
  C   C91       1.0  0.84746  0.31842  0.37665  1.0000
  C   C92       1.0  0.83209  0.33064  0.35252  1.0000
  C   C93       1.0  0.67907  0.15457  0.36839  1.0000
  C   C94       1.0  0.70725  0.16447  0.36674  1.0000
  H   H58       1.0  0.87198  0.19523  0.38208  1.0000
  H   H59       1.0  0.84825  0.21973  0.38645  1.0000
  H   H60       1.0  0.84778  0.28188  0.39127  1.0000
  H   H61       1.0  0.86704  0.33016  0.39763  1.0000
  H   H62       1.0  0.66659  0.13611  0.39673  1.0000
  H   H63       1.0  0.71453  0.15306  0.39530  1.0000
  C   C95       1.0  0.79615  0.24409  0.34624  1.0000
  N   N22       1.0  0.80911  0.22951  0.35072  1.0000
  C   C96       1.0  0.79549  0.20180  0.34901  1.0000
  N   N23       1.0  0.84204  0.35725  0.36116  1.0000
  N   N24       1.0  0.85099  0.14313  0.33837  1.0000
  C   C97       1.0  0.72895  0.53820  0.34640  1.0000
  C   C98       1.0  0.81497  0.62499  0.34990  1.0000
  C   C99       1.0  0.84454  0.68319  0.34613  1.0000
  C   C100      1.0  0.81675  0.66881  0.36870  1.0000
  C   C101      1.0  0.80229  0.64029  0.37033  1.0000
  C   C102      1.0  0.71187  0.54839  0.37259  1.0000
  C   C103      1.0  0.68347  0.53134  0.37676  1.0000
  C   C104      1.0  0.67126  0.50379  0.35236  1.0000
  C   C105      1.0  0.84740  0.52683  0.36827  1.0000
  C   C106      1.0  0.83748  0.54509  0.36672  1.0000
  H   H64       1.0  0.80667  0.67902  0.38211  1.0000
  H   H65       1.0  0.78218  0.63082  0.38642  1.0000
  H   H66       1.0  0.72001  0.56817  0.39164  1.0000
  H   H67       1.0  0.67172  0.53914  0.39798  1.0000
  H   H68       1.0  0.86588  0.53281  0.39654  1.0000
  H   H69       1.0  0.84889  0.56378  0.39520  1.0000
  C   C107      1.0  0.75782  0.55439  0.34617  1.0000
  N   N25       1.0  0.77240  0.58191  0.35067  1.0000
  C   C108      1.0  0.80012  0.59599  0.34902  1.0000
  N   N26       1.0  0.64465  0.48713  0.36106  1.0000
  N   N27       1.0  0.85879  0.71011  0.33847  1.0000
  C   C109      1.0  0.19847  0.09350  0.41759  1.0000
  C   C110      1.0  0.22637  0.10762  0.43613  1.0000
  C   C111      1.0  0.24561  0.12019  0.36663  1.0000
  H   H70       1.0  0.18536  0.08381  0.46968  1.0000
  H   H71       1.0  0.23253  0.10793  0.50112  1.0000
  C   C112      1.0  0.27317  0.13182  0.38569  1.0000
  H   H72       1.0  0.27863  0.12490  0.43850  1.0000
  C   C113      1.0  0.90842  0.10720  0.41762  1.0000
  C   C114      1.0  0.89433  0.12102  0.43614  1.0000
  C   C115      1.0  0.88180  0.12774  0.36662  1.0000
  H   H73       1.0  0.91810  0.10376  0.46973  1.0000
  H   H74       1.0  0.89402  0.12687  0.50114  1.0000
  C   C116      1.0  0.87020  0.14369  0.38566  1.0000
  H   H75       1.0  0.87713  0.15607  0.43847  1.0000
  C   C117      1.0  0.89470  0.80345  0.41763  1.0000
  C   C118      1.0  0.88089  0.77555  0.43617  1.0000
  C   C119      1.0  0.87417  0.75630  0.36666  1.0000
  H   H76       1.0  0.89814  0.81656  0.46972  1.0000
  H   H77       1.0  0.87504  0.76940  0.50118  1.0000
  C   C120      1.0  0.85822  0.72875  0.38574  1.0000
  H   H78       1.0  0.84584  0.72331  0.43856  1.0000
  C   C121      1.0  0.55949  0.15163  0.41131  1.0000
  C   C122      1.0  0.58168  0.14762  0.42928  1.0000
  C   C123      1.0  0.59673  0.14590  0.35540  1.0000
  H   H79       1.0  0.54940  0.15398  0.46444  1.0000
  N   N28       1.0  0.58826  0.14649  0.51674  1.0000
  H   H80       1.0  0.57785  0.14794  0.56620  1.0000
  H   H81       1.0  0.60344  0.14415  0.53301  1.0000
  C   C124      1.0  0.62014  0.14447  0.36677  1.0000
  H   H82       1.0  0.61973  0.12958  0.40256  1.0000
  C   C125      1.0  0.85034  0.41022  0.41131  1.0000
  C   C126      1.0  0.85434  0.43641  0.42925  1.0000
  C   C127      1.0  0.85609  0.45318  0.35535  1.0000
  H   H83       1.0  0.84796  0.39777  0.46444  1.0000
  N   N29       1.0  0.85542  0.44410  0.51671  1.0000
  H   H84       1.0  0.85395  0.43224  0.56618  1.0000
  H   H85       1.0  0.85774  0.46161  0.53296  1.0000
  C   C128      1.0  0.85753  0.47802  0.36665  1.0000
  H   H86       1.0  0.87235  0.49245  0.40280  1.0000
  C   C129      1.0  0.59168  0.44247  0.41126  1.0000
  C   C130      1.0  0.56549  0.42029  0.42922  1.0000
  C   C131      1.0  0.54871  0.40528  0.35533  1.0000
  H   H87       1.0  0.60413  0.45254  0.46438  1.0000
  N   N30       1.0  0.55781  0.41369  0.51668  1.0000
  H   H88       1.0  0.56968  0.42407  0.56614  1.0000
  H   H89       1.0  0.54030  0.39850  0.53295  1.0000
  C   C132      1.0  0.52387  0.38189  0.36663  1.0000
  H   H90       1.0  0.50945  0.38227  0.40297  1.0000
