data_image0
_chemical_formula_structural       C16H16C3NC3NC5NC5NC36H26N4H4CNCNCNC18H12C3O3CNCNCNC18H12C3O3
_chemical_formula_sum              "C116 H70 N14 O6"
_cell_length_a       41.9043
_cell_length_b       32.5827
_cell_length_c       15.0301
_cell_angle_alpha    90.303
_cell_angle_beta     89.7644
_cell_angle_gamma    89.7692

_space_group_name_H-M_alt    "P 1"
_space_group_IT_number       1

loop_
  _space_group_symop_operation_xyz
  'x, y, z'

loop_
  _atom_site_type_symbol
  _atom_site_label
  _atom_site_symmetry_multiplicity
  _atom_site_fract_x
  _atom_site_fract_y
  _atom_site_fract_z
  _atom_site_occupancy
  C   C1        1.0  0.85550  0.13162  0.28721  1.0000
  C   C2        1.0  0.83165  0.16206  0.28980  1.0000
  C   C3        1.0  0.74648  0.23909  0.30873  1.0000
  C   C4        1.0  0.76866  0.20661  0.30975  1.0000
  C   C5        1.0  0.84875  0.88468  0.27021  1.0000
  C   C6        1.0  0.82405  0.85563  0.26605  1.0000
  C   C7        1.0  0.78984  0.77435  0.28933  1.0000
  C   C8        1.0  0.76689  0.74302  0.28861  1.0000
  C   C9        1.0  0.05958  0.84239  0.28602  1.0000
  C   C10       1.0  0.03600  0.87317  0.28484  1.0000
  C   C11       1.0  0.12210  0.79691  0.30416  1.0000
  C   C12       1.0  0.14403  0.76417  0.30154  1.0000
  C   C13       1.0  0.04300  0.11902  0.26976  1.0000
  C   C14       1.0  0.06782  0.14786  0.26507  1.0000
  C   C15       1.0  0.12530  0.26025  0.28488  1.0000
  C   C16       1.0  0.10231  0.22897  0.28621  1.0000
  H   H1        1.0  0.12117  0.28575  0.24712  1.0000
  H   H2        1.0  0.08174  0.23311  0.25080  1.0000
  H   H3        1.0  0.07531  0.15741  0.20369  1.0000
  H   H4        1.0  0.03299  0.10843  0.21205  1.0000
  H   H5        1.0  0.02634  0.88179  0.22529  1.0000
  H   H6        1.0  0.06597  0.82883  0.22699  1.0000
  H   H7        1.0  0.85889  0.89484  0.21232  1.0000
  H   H8        1.0  0.81677  0.84550  0.20486  1.0000
  H   H9        1.0  0.77121  0.71708  0.25174  1.0000
  H   H10       1.0  0.81056  0.76991  0.25423  1.0000
  H   H11       1.0  0.76696  0.18425  0.26191  1.0000
  H   H12       1.0  0.73029  0.24003  0.25812  1.0000
  H   H13       1.0  0.82531  0.17583  0.23140  1.0000
  H   H14       1.0  0.86540  0.12342  0.22727  1.0000
  H   H15       1.0  0.12425  0.81966  0.25782  1.0000
  H   H16       1.0  0.16053  0.76343  0.25130  1.0000
  C   C17       1.0  0.96577  0.13046  0.36235  1.0000
  C   C18       1.0  0.93285  0.13197  0.36487  1.0000
  C   C19       1.0  0.92138  0.09174  0.36309  1.0000
  N   N1        1.0  0.94768  0.06745  0.36038  1.0000
  C   C20       1.0  0.97516  0.08928  0.35984  1.0000
  C   C21       1.0  0.00730  0.07513  0.35736  1.0000
  C   C22       1.0  0.01668  0.03326  0.35814  1.0000
  N   N2        1.0  0.99761  0.99998  0.36116  1.0000
  C   C23       1.0  0.01462  0.96473  0.36134  1.0000
  C   C24       1.0  0.04672  0.97615  0.35850  1.0000
  C   C25       1.0  0.04799  0.01842  0.35630  1.0000
  C   C26       1.0  0.00281  0.92399  0.36346  1.0000
  C   C27       1.0  0.97004  0.91279  0.36298  1.0000
  N   N3        1.0  0.94376  0.93707  0.36060  1.0000
  C   C28       1.0  0.91629  0.91524  0.35970  1.0000
  C   C29       1.0  0.92567  0.87406  0.36186  1.0000
  C   C30       1.0  0.95858  0.87256  0.36428  1.0000
  C   C31       1.0  0.88415  0.92936  0.35716  1.0000
  C   C32       1.0  0.87477  0.97123  0.35785  1.0000
  N   N4        1.0  0.89384  0.00453  0.36087  1.0000
  C   C33       1.0  0.87682  0.03978  0.36116  1.0000
  C   C34       1.0  0.84473  0.02834  0.35826  1.0000
  C   C35       1.0  0.84347  0.98606  0.35598  1.0000
  C   C36       1.0  0.88862  0.08054  0.36356  1.0000
  C   C37       1.0  0.86555  0.11257  0.36641  1.0000
  C   C38       1.0  0.81716  0.17401  0.37128  1.0000
  C   C39       1.0  0.82750  0.15469  0.45033  1.0000
  C   C40       1.0  0.85137  0.12428  0.44804  1.0000
  C   C41       1.0  0.79332  0.20532  0.37372  1.0000
  C   C42       1.0  0.79459  0.23719  0.43787  1.0000
  C   C43       1.0  0.77239  0.26959  0.43678  1.0000
  C   C44       1.0  0.74788  0.27116  0.37242  1.0000
  C   C45       1.0  0.85944  0.89956  0.35322  1.0000
  C   C46       1.0  0.80922  0.84104  0.34451  1.0000
  C   C47       1.0  0.81991  0.85644  0.42741  1.0000
  C   C48       1.0  0.84476  0.88529  0.43184  1.0000
  C   C49       1.0  0.78504  0.81047  0.34041  1.0000
  C   C50       1.0  0.73844  0.74686  0.33882  1.0000
  C   C51       1.0  0.73291  0.78353  0.38691  1.0000
  C   C52       1.0  0.75614  0.81466  0.38883  1.0000
  C   C53       1.0  0.02583  0.89191  0.36493  1.0000
  C   C54       1.0  0.03961  0.87956  0.44605  1.0000
  C   C55       1.0  0.06319  0.84876  0.44694  1.0000
  C   C56       1.0  0.07363  0.82974  0.36697  1.0000
  C   C57       1.0  0.09715  0.79803  0.36787  1.0000
  C   C58       1.0  0.14203  0.73161  0.36321  1.0000
  C   C59       1.0  0.11718  0.73293  0.42716  1.0000
  C   C60       1.0  0.09526  0.76566  0.42997  1.0000
  C   C61       1.0  0.03203  0.10489  0.35302  1.0000
  C   C62       1.0  0.04658  0.11969  0.43136  1.0000
  C   C63       1.0  0.08251  0.16302  0.34323  1.0000
  C   C64       1.0  0.07155  0.14835  0.42641  1.0000
  C   C65       1.0  0.10679  0.19346  0.33854  1.0000
  C   C66       1.0  0.13547  0.18976  0.38741  1.0000
  C   C67       1.0  0.15874  0.22081  0.38490  1.0000
  C   C68       1.0  0.15348  0.25699  0.33574  1.0000
  H   H17       1.0  0.17901  0.21765  0.42202  1.0000
  H   H18       1.0  0.13972  0.16428  0.42519  1.0000
  H   H19       1.0  0.08117  0.15915  0.48444  1.0000
  H   H20       1.0  0.03904  0.10978  0.49243  1.0000
  H   H21       1.0  0.98021  0.15568  0.36305  1.0000
  H   H22       1.0  0.91973  0.15848  0.36705  1.0000
  H   H23       1.0  0.94685  0.03803  0.35767  1.0000
  H   H24       1.0  0.94460  0.96649  0.35834  1.0000
  H   H25       1.0  0.06856  0.03513  0.35387  1.0000
  H   H26       1.0  0.06626  0.95726  0.35745  1.0000
  H   H27       1.0  0.03277  0.89310  0.50476  1.0000
  H   H28       1.0  0.07308  0.84087  0.50664  1.0000
  H   H29       1.0  0.97169  0.84606  0.36608  1.0000
  H   H30       1.0  0.91124  0.84884  0.36209  1.0000
  H   H31       1.0  0.82519  0.04721  0.35716  1.0000
  H   H32       1.0  0.82290  0.96933  0.35353  1.0000
  H   H33       1.0  0.85212  0.89572  0.49274  1.0000
  H   H34       1.0  0.81017  0.84607  0.48563  1.0000
  H   H35       1.0  0.75168  0.84056  0.42573  1.0000
  H   H36       1.0  0.71243  0.78710  0.42348  1.0000
  H   H37       1.0  0.85807  0.11044  0.50610  1.0000
  H   H38       1.0  0.81730  0.16203  0.51035  1.0000
  H   H39       1.0  0.77468  0.29275  0.48256  1.0000
  H   H40       1.0  0.81257  0.23813  0.48374  1.0000
  H   H41       1.0  0.07704  0.76461  0.47547  1.0000
  H   H42       1.0  0.11450  0.70946  0.47153  1.0000
  N   N5        1.0  0.72901  0.30565  0.36773  1.0000
  N   N6        1.0  0.16094  0.69717  0.35731  1.0000
  N   N7        1.0  0.17543  0.28802  0.33713  1.0000
  N   N8        1.0  0.71647  0.71589  0.34047  1.0000
  H   H43       1.0  0.69493  0.72301  0.32205  1.0000
  H   H44       1.0  0.15120  0.67173  0.37774  1.0000
  H   H45       1.0  0.19723  0.28065  0.32105  1.0000
  H   H46       1.0  0.73856  0.33089  0.39025  1.0000
  C   C69       1.0  0.25535  0.53984  0.32301  1.0000
  N   N9        1.0  0.23796  0.50483  0.32286  1.0000
  C   C70       1.0  0.25108  0.46681  0.33095  1.0000
  N   N10       1.0  0.28339  0.46468  0.34007  1.0000
  C   C71       1.0  0.30208  0.49882  0.34110  1.0000
  N   N11       1.0  0.28732  0.53580  0.33286  1.0000
  C   C72       1.0  0.23103  0.43151  0.33404  1.0000
  C   C73       1.0  0.19752  0.43543  0.32483  1.0000
  C   C74       1.0  0.17732  0.40134  0.33191  1.0000
  C   C75       1.0  0.18961  0.36157  0.34797  1.0000
  C   C76       1.0  0.22312  0.35736  0.35591  1.0000
  C   C77       1.0  0.24339  0.39166  0.34933  1.0000
  C   C78       1.0  0.24045  0.57903  0.31841  1.0000
  C   C79       1.0  0.20820  0.58290  0.29206  1.0000
  C   C80       1.0  0.19265  0.62115  0.29379  1.0000
  C   C81       1.0  0.20858  0.65692  0.32309  1.0000
  C   C82       1.0  0.24122  0.65350  0.34542  1.0000
  C   C83       1.0  0.25687  0.61522  0.34322  1.0000
  C   C84       1.0  0.33582  0.49703  0.35094  1.0000
  C   C85       1.0  0.35346  0.53285  0.37186  1.0000
  C   C86       1.0  0.38687  0.53185  0.37834  1.0000
  C   C87       1.0  0.40374  0.49492  0.36312  1.0000
  C   C88       1.0  0.38648  0.45883  0.34385  1.0000
  C   C89       1.0  0.35296  0.45988  0.33826  1.0000
  H   H47       1.0  0.16934  0.62239  0.27390  1.0000
  H   H48       1.0  0.19545  0.55780  0.27204  1.0000
  H   H49       1.0  0.25366  0.67857  0.36719  1.0000
  H   H50       1.0  0.28014  0.61398  0.36341  1.0000
  H   H51       1.0  0.34223  0.56039  0.38248  1.0000
  H   H52       1.0  0.39879  0.55847  0.39256  1.0000
  H   H53       1.0  0.34130  0.43332  0.32234  1.0000
  H   H54       1.0  0.39820  0.43167  0.33217  1.0000
  H   H55       1.0  0.26738  0.38717  0.35741  1.0000
  H   H56       1.0  0.23319  0.32951  0.36976  1.0000
  H   H57       1.0  0.15331  0.40608  0.32443  1.0000
  H   H58       1.0  0.18712  0.46338  0.31354  1.0000
  C   C90       1.0  0.19207  0.69510  0.33062  1.0000
  C   C91       1.0  0.43678  0.49452  0.36492  1.0000
  C   C92       1.0  0.16804  0.32796  0.35600  1.0000
  O   O1        1.0  0.13812  0.33668  0.38552  1.0000
  O   O2        1.0  0.44899  0.47707  0.42838  1.0000
  O   O3        1.0  0.20920  0.73004  0.32214  1.0000
  C   C93       1.0  0.63669  0.46426  0.31771  1.0000
  N   N12       1.0  0.65419  0.49904  0.32466  1.0000
  C   C94       1.0  0.64106  0.53724  0.32691  1.0000
  N   N13       1.0  0.60864  0.53980  0.32173  1.0000
  C   C95       1.0  0.58983  0.50591  0.31419  1.0000
  N   N14       1.0  0.60460  0.46869  0.31296  1.0000
  C   C96       1.0  0.66107  0.57238  0.33542  1.0000
  C   C97       1.0  0.69474  0.56821  0.33405  1.0000
  C   C98       1.0  0.71477  0.60238  0.34325  1.0000
  C   C99       1.0  0.70219  0.64248  0.35402  1.0000
  C   C100      1.0  0.66854  0.64679  0.35546  1.0000
  C   C101      1.0  0.64841  0.61246  0.34640  1.0000
  C   C102      1.0  0.65142  0.42496  0.31810  1.0000
  C   C103      1.0  0.68425  0.42055  0.29787  1.0000
  C   C104      1.0  0.69936  0.38209  0.30242  1.0000
  C   C105      1.0  0.68241  0.34671  0.32899  1.0000
  C   C106      1.0  0.64932  0.35077  0.34594  1.0000
  C   C107      1.0  0.63408  0.38924  0.34053  1.0000
  C   C108      1.0  0.55594  0.50819  0.30868  1.0000
  C   C109      1.0  0.53772  0.47282  0.28790  1.0000
  C   C110      1.0  0.50426  0.47435  0.28444  1.0000
  C   C111      1.0  0.48790  0.51140  0.30241  1.0000
  C   C112      1.0  0.50568  0.54705  0.32182  1.0000
  C   C113      1.0  0.53924  0.54542  0.32468  1.0000
  H   H59       1.0  0.72306  0.38039  0.28608  1.0000
  H   H60       1.0  0.69764  0.44531  0.27939  1.0000
  H   H61       1.0  0.63614  0.32599  0.36544  1.0000
  H   H62       1.0  0.61034  0.39100  0.35642  1.0000
  H   H63       1.0  0.54854  0.44521  0.27498  1.0000
  H   H64       1.0  0.49196  0.44808  0.26973  1.0000
  H   H65       1.0  0.55129  0.57172  0.34030  1.0000
  H   H66       1.0  0.49433  0.57430  0.33520  1.0000
  H   H67       1.0  0.62426  0.61714  0.34876  1.0000
  H   H68       1.0  0.65815  0.67489  0.36522  1.0000
  H   H69       1.0  0.73890  0.59745  0.34051  1.0000
  H   H70       1.0  0.70535  0.54010  0.32584  1.0000
  C   C114      1.0  0.69835  0.30825  0.33800  1.0000
  C   C115      1.0  0.45487  0.51236  0.30152  1.0000
  C   C116      1.0  0.72358  0.67632  0.36240  1.0000
  O   O4        1.0  0.75317  0.66825  0.39441  1.0000
  O   O5        1.0  0.44268  0.52964  0.23780  1.0000
  O   O6        1.0  0.68107  0.27359  0.32643  1.0000
