data_image0
_chemical_formula_structural       C2HC2HN2C2NOCH3CHC2NOCH3CHC4H2C4H2N2C2NHCHC2NHCHC2HC2HN2C2NOCH3CHC2NOCH3CHC4H2C4H2N2C2NHCHC2NHCHC2HC2HN2C2NOCH3CHC2NOCH3CHC4H2C4H2N2C2NHCHC2NHCHC2HC2HN2C2NOCH3CHC2NOCH3CHC4H2C4H2N2C2NHCHC2NHCH
_chemical_formula_sum              "C104 H72 N32 O8"
_cell_length_a       31.3574
_cell_length_b       31.3574
_cell_length_c       14.8779
_cell_angle_alpha    90
_cell_angle_beta     90
_cell_angle_gamma    90

_space_group_name_H-M_alt    "P 1"
_space_group_IT_number       1

loop_
  _space_group_symop_operation_xyz
  'x, y, z'

loop_
  _atom_site_type_symbol
  _atom_site_label
  _atom_site_symmetry_multiplicity
  _atom_site_fract_x
  _atom_site_fract_y
  _atom_site_fract_z
  _atom_site_occupancy
  C   C1        1.0  0.01945  0.05634  0.32112  1.0000
  C   C2        1.0  0.05089  0.08869  0.32120  1.0000
  H   H1        1.0  0.48886  0.06673  0.32039  1.0000
  C   C3        1.0  0.47451  0.40229  0.32197  1.0000
  C   C4        1.0  0.50610  0.43446  0.32215  1.0000
  H   H2        1.0  0.03667  0.42394  0.32187  1.0000
  N   N1        1.0  0.48200  0.35977  0.32132  1.0000
  N   N2        1.0  0.04318  0.13124  0.32060  1.0000
  C   C5        1.0  0.97394  0.26680  0.31492  1.0000
  C   C6        1.0  0.50998  0.19988  0.31901  1.0000
  N   N3        1.0  0.47375  0.22345  0.31581  1.0000
  O   O1        1.0  0.93507  0.28658  0.31263  1.0000
  C   C7        1.0  0.41748  0.28948  0.22353  1.0000
  H   H3        1.0  0.93833  0.30754  0.17861  1.0000
  H   H4        1.0  0.88707  0.30619  0.22792  1.0000
  H   H5        1.0  0.41159  0.25790  0.19503  1.0000
  C   C8        1.0  0.50745  0.15526  0.31899  1.0000
  H   H6        1.0  0.47815  0.14099  0.31709  1.0000
  C   C9        1.0  0.24141  0.03426  0.31632  1.0000
  C   C10       1.0  0.30831  0.49822  0.32041  1.0000
  N   N4        1.0  0.28475  0.53445  0.31723  1.0000
  O   O2        1.0  0.22162  0.07314  0.31405  1.0000
  C   C11       1.0  0.21881  0.59078  0.22498  1.0000
  H   H7        1.0  0.25041  0.09670  0.19662  1.0000
  H   H8        1.0  0.20208  0.12119  0.22938  1.0000
  H   H9        1.0  0.20079  0.56995  0.17994  1.0000
  C   C12       1.0  0.35294  0.50075  0.32031  1.0000
  H   H10       1.0  0.36721  0.53005  0.31836  1.0000
  C   C13       1.0  0.02912  0.01172  0.32202  1.0000
  C   C14       1.0  0.09397  0.07679  0.32187  1.0000
  C   C15       1.0  0.10591  0.03369  0.32251  1.0000
  C   C16       1.0  0.07374  0.00211  0.32279  1.0000
  H   H11       1.0  0.08425  0.47153  0.32337  1.0000
  H   H12       1.0  0.11710  0.09995  0.32167  1.0000
  C   C17       1.0  0.49647  0.47908  0.32203  1.0000
  C   C18       1.0  0.45186  0.48874  0.32181  1.0000
  C   C19       1.0  0.41950  0.45731  0.32178  1.0000
  C   C20       1.0  0.43141  0.41422  0.32188  1.0000
  H   H13       1.0  0.44146  0.01934  0.32201  1.0000
  H   H14       1.0  0.40825  0.39109  0.32166  1.0000
  N   N5        1.0  0.37695  0.46501  0.32154  1.0000
  N   N6        1.0  0.14842  0.02620  0.32220  1.0000
  C   C21       1.0  0.01319  0.28939  0.31980  1.0000
  C   C22       1.0  0.05046  0.26396  0.32253  1.0000
  N   N7        1.0  0.54793  0.22075  0.32210  1.0000
  H   H15       1.0  0.08006  0.27757  0.32554  1.0000
  C   C23       1.0  0.01669  0.33431  0.32168  1.0000
  H   H16       1.0  0.04622  0.34813  0.32402  1.0000
  C   C24       1.0  0.21881  0.99502  0.32115  1.0000
  C   C25       1.0  0.24423  0.95775  0.32390  1.0000
  N   N8        1.0  0.28744  0.46027  0.32346  1.0000
  H   H17       1.0  0.23063  0.92814  0.32687  1.0000
  C   C26       1.0  0.17389  0.99151  0.32293  1.0000
  H   H18       1.0  0.16007  0.96198  0.32523  1.0000
  C   C27       1.0  0.01945  0.55634  0.32112  1.0000
  C   C28       1.0  0.05089  0.58870  0.32120  1.0000
  H   H19       1.0  0.48886  0.56673  0.32039  1.0000
  C   C29       1.0  0.47451  0.90229  0.32197  1.0000
  C   C30       1.0  0.50610  0.93446  0.32215  1.0000
  H   H20       1.0  0.03667  0.92394  0.32187  1.0000
  N   N9        1.0  0.48200  0.85977  0.32132  1.0000
  N   N10       1.0  0.04318  0.63124  0.32060  1.0000
  C   C31       1.0  0.97394  0.76680  0.31492  1.0000
  C   C32       1.0  0.50998  0.69988  0.31901  1.0000
  N   N11       1.0  0.47375  0.72345  0.31581  1.0000
  O   O3        1.0  0.93507  0.78658  0.31263  1.0000
  C   C33       1.0  0.41748  0.78948  0.22353  1.0000
  H   H21       1.0  0.93833  0.80754  0.17861  1.0000
  H   H22       1.0  0.88707  0.80619  0.22792  1.0000
  H   H23       1.0  0.41159  0.75790  0.19503  1.0000
  C   C34       1.0  0.50745  0.65526  0.31899  1.0000
  H   H24       1.0  0.47815  0.64099  0.31709  1.0000
  C   C35       1.0  0.24141  0.53426  0.31632  1.0000
  C   C36       1.0  0.30831  0.99822  0.32041  1.0000
  N   N12       1.0  0.28475  0.03445  0.31723  1.0000
  O   O4        1.0  0.22162  0.57314  0.31405  1.0000
  C   C37       1.0  0.21881  0.09078  0.22498  1.0000
  H   H25       1.0  0.25041  0.59670  0.19662  1.0000
  H   H26       1.0  0.20208  0.62119  0.22938  1.0000
  H   H27       1.0  0.20079  0.06995  0.17994  1.0000
  C   C38       1.0  0.35294  0.00075  0.32031  1.0000
  H   H28       1.0  0.36721  0.03005  0.31836  1.0000
  C   C39       1.0  0.02912  0.51173  0.32202  1.0000
  C   C40       1.0  0.09397  0.57679  0.32187  1.0000
  C   C41       1.0  0.10591  0.53370  0.32251  1.0000
  C   C42       1.0  0.07374  0.50210  0.32279  1.0000
  H   H29       1.0  0.08425  0.97153  0.32337  1.0000
  H   H30       1.0  0.11710  0.59995  0.32167  1.0000
  C   C43       1.0  0.49647  0.97908  0.32203  1.0000
  C   C44       1.0  0.45186  0.98874  0.32181  1.0000
  C   C45       1.0  0.41950  0.95730  0.32178  1.0000
  C   C46       1.0  0.43141  0.91422  0.32188  1.0000
  H   H31       1.0  0.44146  0.51934  0.32201  1.0000
  H   H32       1.0  0.40825  0.89110  0.32166  1.0000
  N   N13       1.0  0.37695  0.96501  0.32154  1.0000
  N   N14       1.0  0.14842  0.52620  0.32220  1.0000
  C   C47       1.0  0.01319  0.78939  0.31980  1.0000
  C   C48       1.0  0.05046  0.76396  0.32253  1.0000
  N   N15       1.0  0.54793  0.72075  0.32210  1.0000
  H   H33       1.0  0.08006  0.77757  0.32554  1.0000
  C   C49       1.0  0.01669  0.83431  0.32168  1.0000
  H   H34       1.0  0.04622  0.84813  0.32402  1.0000
  C   C50       1.0  0.21881  0.49501  0.32115  1.0000
  C   C51       1.0  0.24423  0.45775  0.32390  1.0000
  N   N16       1.0  0.28744  0.96028  0.32346  1.0000
  H   H35       1.0  0.23063  0.42814  0.32687  1.0000
  C   C52       1.0  0.17389  0.49151  0.32293  1.0000
  H   H36       1.0  0.16007  0.46198  0.32523  1.0000
  C   C53       1.0  0.51945  0.05634  0.32112  1.0000
  C   C54       1.0  0.55089  0.08869  0.32120  1.0000
  H   H37       1.0  0.98886  0.06673  0.32039  1.0000
  C   C55       1.0  0.97451  0.40229  0.32197  1.0000
  C   C56       1.0  0.00609  0.43446  0.32215  1.0000
  H   H38       1.0  0.53668  0.42394  0.32187  1.0000
  N   N17       1.0  0.98200  0.35977  0.32132  1.0000
  N   N18       1.0  0.54318  0.13124  0.32060  1.0000
  C   C57       1.0  0.47395  0.26680  0.31492  1.0000
  C   C58       1.0  0.00998  0.19988  0.31901  1.0000
  N   N19       1.0  0.97375  0.22345  0.31581  1.0000
  O   O5        1.0  0.43507  0.28658  0.31263  1.0000
  C   C59       1.0  0.91748  0.28948  0.22353  1.0000
  H   H39       1.0  0.43833  0.30754  0.17861  1.0000
  H   H40       1.0  0.38707  0.30619  0.22792  1.0000
  H   H41       1.0  0.91159  0.25790  0.19503  1.0000
  C   C60       1.0  0.00745  0.15526  0.31899  1.0000
  H   H42       1.0  0.97815  0.14099  0.31709  1.0000
  C   C61       1.0  0.74141  0.03426  0.31632  1.0000
  C   C62       1.0  0.80832  0.49822  0.32041  1.0000
  N   N20       1.0  0.78475  0.53445  0.31723  1.0000
  O   O6        1.0  0.72162  0.07314  0.31405  1.0000
  C   C63       1.0  0.71881  0.59078  0.22498  1.0000
  H   H43       1.0  0.75041  0.09670  0.19662  1.0000
  H   H44       1.0  0.70208  0.12119  0.22938  1.0000
  H   H45       1.0  0.70079  0.56995  0.17994  1.0000
  C   C64       1.0  0.85294  0.50075  0.32031  1.0000
  H   H46       1.0  0.86721  0.53005  0.31836  1.0000
  C   C65       1.0  0.52912  0.01172  0.32202  1.0000
  C   C66       1.0  0.59397  0.07679  0.32187  1.0000
  C   C67       1.0  0.60591  0.03369  0.32251  1.0000
  C   C68       1.0  0.57374  0.00211  0.32279  1.0000
  H   H47       1.0  0.58426  0.47153  0.32337  1.0000
  H   H48       1.0  0.61709  0.09995  0.32167  1.0000
  C   C69       1.0  0.99647  0.47908  0.32203  1.0000
  C   C70       1.0  0.95185  0.48874  0.32181  1.0000
  C   C71       1.0  0.91950  0.45731  0.32178  1.0000
  C   C72       1.0  0.93141  0.41422  0.32188  1.0000
  H   H49       1.0  0.94146  0.01934  0.32201  1.0000
  H   H50       1.0  0.90825  0.39109  0.32166  1.0000
  N   N21       1.0  0.87695  0.46501  0.32154  1.0000
  N   N22       1.0  0.64842  0.02620  0.32220  1.0000
  C   C73       1.0  0.51319  0.28939  0.31980  1.0000
  C   C74       1.0  0.55046  0.26396  0.32253  1.0000
  N   N23       1.0  0.04793  0.22075  0.32210  1.0000
  H   H51       1.0  0.58006  0.27757  0.32554  1.0000
  C   C75       1.0  0.51669  0.33431  0.32168  1.0000
  H   H52       1.0  0.54622  0.34813  0.32402  1.0000
  C   C76       1.0  0.71881  0.99502  0.32115  1.0000
  C   C77       1.0  0.74423  0.95775  0.32390  1.0000
  N   N24       1.0  0.78744  0.46027  0.32346  1.0000
  H   H53       1.0  0.73063  0.92814  0.32687  1.0000
  C   C78       1.0  0.67389  0.99151  0.32293  1.0000
  H   H54       1.0  0.66007  0.96198  0.32523  1.0000
  C   C79       1.0  0.51945  0.55634  0.32112  1.0000
  C   C80       1.0  0.55089  0.58870  0.32120  1.0000
  H   H55       1.0  0.98886  0.56673  0.32039  1.0000
  C   C81       1.0  0.97451  0.90229  0.32197  1.0000
  C   C82       1.0  0.00609  0.93446  0.32215  1.0000
  H   H56       1.0  0.53668  0.92394  0.32187  1.0000
  N   N25       1.0  0.98200  0.85977  0.32132  1.0000
  N   N26       1.0  0.54318  0.63124  0.32060  1.0000
  C   C83       1.0  0.47395  0.76680  0.31492  1.0000
  C   C84       1.0  0.00998  0.69988  0.31901  1.0000
  N   N27       1.0  0.97375  0.72345  0.31581  1.0000
  O   O7        1.0  0.43507  0.78658  0.31263  1.0000
  C   C85       1.0  0.91748  0.78948  0.22353  1.0000
  H   H57       1.0  0.43833  0.80754  0.17861  1.0000
  H   H58       1.0  0.38707  0.80619  0.22792  1.0000
  H   H59       1.0  0.91159  0.75790  0.19503  1.0000
  C   C86       1.0  0.00745  0.65526  0.31899  1.0000
  H   H60       1.0  0.97815  0.64099  0.31709  1.0000
  C   C87       1.0  0.74141  0.53426  0.31632  1.0000
  C   C88       1.0  0.80832  0.99822  0.32041  1.0000
  N   N28       1.0  0.78475  0.03445  0.31723  1.0000
  O   O8        1.0  0.72162  0.57314  0.31405  1.0000
  C   C89       1.0  0.71881  0.09078  0.22498  1.0000
  H   H61       1.0  0.75041  0.59670  0.19662  1.0000
  H   H62       1.0  0.70208  0.62119  0.22938  1.0000
  H   H63       1.0  0.70079  0.06995  0.17994  1.0000
  C   C90       1.0  0.85294  0.00075  0.32031  1.0000
  H   H64       1.0  0.86721  0.03005  0.31836  1.0000
  C   C91       1.0  0.52912  0.51173  0.32202  1.0000
  C   C92       1.0  0.59397  0.57679  0.32187  1.0000
  C   C93       1.0  0.60591  0.53370  0.32251  1.0000
  C   C94       1.0  0.57374  0.50210  0.32279  1.0000
  H   H65       1.0  0.58426  0.97153  0.32337  1.0000
  H   H66       1.0  0.61709  0.59995  0.32167  1.0000
  C   C95       1.0  0.99647  0.97908  0.32203  1.0000
  C   C96       1.0  0.95185  0.98874  0.32181  1.0000
  C   C97       1.0  0.91950  0.95730  0.32178  1.0000
  C   C98       1.0  0.93141  0.91422  0.32188  1.0000
  H   H67       1.0  0.94146  0.51934  0.32201  1.0000
  H   H68       1.0  0.90825  0.89110  0.32166  1.0000
  N   N29       1.0  0.87695  0.96501  0.32154  1.0000
  N   N30       1.0  0.64842  0.52620  0.32220  1.0000
  C   C99       1.0  0.51319  0.78939  0.31980  1.0000
  C   C100      1.0  0.55046  0.76396  0.32253  1.0000
  N   N31       1.0  0.04793  0.72075  0.32210  1.0000
  H   H69       1.0  0.58006  0.77757  0.32554  1.0000
  C   C101      1.0  0.51669  0.83431  0.32168  1.0000
  H   H70       1.0  0.54622  0.84813  0.32402  1.0000
  C   C102      1.0  0.71881  0.49501  0.32115  1.0000
  C   C103      1.0  0.74423  0.45775  0.32390  1.0000
  N   N32       1.0  0.78744  0.96028  0.32346  1.0000
  H   H71       1.0  0.73063  0.42814  0.32687  1.0000
  C   C104      1.0  0.67389  0.49151  0.32293  1.0000
  H   H72       1.0  0.66007  0.46198  0.32523  1.0000
