data_image0
_chemical_formula_structural       SiC12H8C9H3CH3NH2CH3C12H7CHCO4C2HC3H2CH3NHC6HC6H4CH3NHNHSiC12H8C9H3CH3NH2CH3C12H7CHCO4C2HC3H2CH3NHC6HC6H4CH3NHNHSiC12H8C9H3CH3NH2CH3C12H7CHCO4C2HC3H2CH3NHC6HC6H4CH3NHNHSiC12H8C9H3CH3NH2CH3C12H7CHCO4C2HC3H2CH3NHC6HC6H4CH3NHNH
_chemical_formula_sum              "Si4 C224 H176 N16 O16"
_cell_length_a       37.9386
_cell_length_b       37.937
_cell_length_c       15.006
_cell_angle_alpha    90
_cell_angle_beta     90
_cell_angle_gamma    90.1845

_space_group_name_H-M_alt    "P 1"
_space_group_IT_number       1

loop_
  _space_group_symop_operation_xyz
  'x, y, z'

loop_
  _atom_site_type_symbol
  _atom_site_label
  _atom_site_symmetry_multiplicity
  _atom_site_fract_x
  _atom_site_fract_y
  _atom_site_fract_z
  _atom_site_occupancy
  Si  Si1       1.0  0.49930  0.50422  0.06319  1.0000
  C   C1        1.0  0.49342  0.46788  0.12335  1.0000
  C   C2        1.0  0.00762  0.03332  0.14339  1.0000
  C   C3        1.0  0.47991  0.05106  0.18765  1.0000
  C   C4        1.0  0.48656  0.07196  0.26331  1.0000
  C   C5        1.0  0.02101  0.07514  0.29858  1.0000
  C   C6        1.0  0.04851  0.05659  0.25611  1.0000
  C   C7        1.0  0.04177  0.03531  0.18139  1.0000
  C   C8        1.0  0.02251  0.44682  0.14832  1.0000
  C   C9        1.0  0.01832  0.41850  0.20776  1.0000
  C   C10       1.0  0.48509  0.41049  0.24570  1.0000
  C   C11       1.0  0.45649  0.43285  0.22503  1.0000
  C   C12       1.0  0.46067  0.46126  0.16570  1.0000
  H   H1        1.0  0.46605  0.08572  0.29051  1.0000
  H   H2        1.0  0.45443  0.04911  0.16565  1.0000
  H   H3        1.0  0.07381  0.05838  0.27936  1.0000
  H   H4        1.0  0.06247  0.02156  0.15495  1.0000
  H   H5        1.0  0.04732  0.45194  0.12473  1.0000
  H   H6        1.0  0.04015  0.40412  0.22423  1.0000
  H   H7        1.0  0.43207  0.42837  0.25179  1.0000
  H   H8        1.0  0.43926  0.47696  0.15399  1.0000
  C   C13       1.0  0.02903  0.10006  0.36632  1.0000
  C   C14       1.0  0.48044  0.38044  0.30167  1.0000
  C   C15       1.0  0.49192  0.31767  0.32554  1.0000
  C   C16       1.0  0.99301  0.28674  0.27319  1.0000
  C   C17       1.0  0.49080  0.25273  0.31113  1.0000
  C   C18       1.0  0.48696  0.24974  0.40538  1.0000
  C   C19       1.0  0.48782  0.21616  0.44715  1.0000
  C   C20       1.0  0.02130  0.20300  0.47119  1.0000
  C   C21       1.0  0.02687  0.16657  0.47874  1.0000
  H   H9        1.0  0.04279  0.21941  0.47339  1.0000
  H   H10       1.0  0.05203  0.15772  0.48797  1.0000
  H   H11       1.0  0.99611  0.28918  0.20566  1.0000
  C   C22       1.0  0.49412  0.22142  0.25147  1.0000
  H   H12       1.0  0.99795  0.22862  0.18166  1.0000
  H   H13       1.0  0.47038  0.20524  0.25515  1.0000
  H   H14       1.0  0.01669  0.20556  0.27166  1.0000
  N   N1        1.0  0.99733  0.34952  0.28418  1.0000
  H   H15       1.0  0.01202  0.34881  0.23083  1.0000
  H   H16       1.0  0.15396  0.98944  0.26888  1.0000
  C   C23       1.0  0.22058  0.47861  0.21114  1.0000
  H   H17       1.0  0.19863  0.96797  0.17236  1.0000
  H   H18       1.0  0.23702  0.45658  0.23184  1.0000
  H   H19       1.0  0.23598  0.99575  0.16746  1.0000
  C   C24       1.0  0.08224  0.49798  0.51314  1.0000
  C   C25       1.0  0.06108  0.46845  0.53525  1.0000
  C   C26       1.0  0.03580  0.47017  0.60368  1.0000
  C   C27       1.0  0.03145  0.50122  0.65480  1.0000
  C   C28       1.0  0.05131  0.03128  0.62988  1.0000
  C   C29       1.0  0.07663  0.02950  0.56166  1.0000
  C   C30       1.0  0.46505  0.01363  0.66510  1.0000
  C   C31       1.0  0.45912  0.04852  0.63514  1.0000
  C   C32       1.0  0.43363  0.05570  0.56947  1.0000
  C   C33       1.0  0.41443  0.02816  0.52817  1.0000
  C   C34       1.0  0.42082  0.49327  0.55705  1.0000
  C   C35       1.0  0.44597  0.48610  0.62322  1.0000
  H   H20       1.0  0.45033  0.46023  0.63910  1.0000
  H   H21       1.0  0.40689  0.47252  0.53129  1.0000
  H   H22       1.0  0.42992  0.08131  0.55023  1.0000
  H   H23       1.0  0.47351  0.06920  0.65984  1.0000
  H   H24       1.0  0.04803  0.05494  0.66159  1.0000
  H   H25       1.0  0.02085  0.44817  0.61583  1.0000
  H   H26       1.0  0.06378  0.44519  0.50139  1.0000
  C   C36       1.0  0.38766  0.03570  0.46443  1.0000
  H   H27       1.0  0.09165  0.05144  0.55040  1.0000
  C   C37       1.0  0.11007  0.49465  0.44953  1.0000
  O   O1        1.0  0.45407  0.38109  0.36255  1.0000
  O   O2        1.0  0.05588  0.12220  0.34530  1.0000
  O   O3        1.0  0.36770  0.06458  0.48062  1.0000
  O   O4        1.0  0.12552  0.46256  0.44290  1.0000
  C   C38       1.0  0.48608  0.28048  0.45839  1.0000
  C   C39       1.0  0.48851  0.31403  0.41887  1.0000
  H   H28       1.0  0.48947  0.33573  0.45922  1.0000
  C   C40       1.0  0.49955  0.14259  0.45761  1.0000
  C   C41       1.0  0.46502  0.15600  0.44716  1.0000
  C   C42       1.0  0.45862  0.19267  0.44160  1.0000
  H   H29       1.0  0.44494  0.13884  0.43270  1.0000
  H   H30       1.0  0.48467  0.27865  0.52638  1.0000
  C   C43       1.0  0.42227  0.20570  0.42443  1.0000
  H   H31       1.0  0.42083  0.21889  0.35998  1.0000
  H   H32       1.0  0.41496  0.22445  0.47635  1.0000
  H   H33       1.0  0.40274  0.18449  0.42468  1.0000
  N   N2        1.0  0.50600  0.10824  0.43324  1.0000
  H   H34       1.0  0.48668  0.09163  0.44290  1.0000
  C   C44       1.0  0.15972  0.52194  0.38158  1.0000
  C   C45       1.0  0.17200  0.00214  0.30827  1.0000
  C   C46       1.0  0.20854  0.49898  0.29013  1.0000
  C   C47       1.0  0.23299  0.51575  0.34847  1.0000
  C   C48       1.0  0.22046  0.53644  0.42007  1.0000
  C   C49       1.0  0.18424  0.53977  0.43593  1.0000
  H   H35       1.0  0.17591  0.55368  0.49041  1.0000
  C   C50       1.0  0.26999  0.51042  0.34440  1.0000
  C   C51       1.0  0.29112  0.03775  0.30865  1.0000
  C   C52       1.0  0.32779  0.03794  0.32173  1.0000
  C   C53       1.0  0.34405  0.51074  0.37055  1.0000
  C   C54       1.0  0.32323  0.48244  0.40199  1.0000
  C   C55       1.0  0.28618  0.48213  0.39147  1.0000
  H   H36       1.0  0.27972  0.05898  0.27804  1.0000
  H   H37       1.0  0.34233  0.05901  0.30001  1.0000
  H   H38       1.0  0.33506  0.46331  0.43961  1.0000
  H   H39       1.0  0.23766  0.54827  0.46355  1.0000
  C   C56       1.0  0.26518  0.45377  0.43546  1.0000
  H   H40       1.0  0.24934  0.43978  0.38617  1.0000
  H   H41       1.0  0.24765  0.46522  0.48525  1.0000
  H   H42       1.0  0.28167  0.43434  0.46909  1.0000
  N   N3        1.0  0.37838  0.51306  0.39750  1.0000
  H   H43       1.0  0.39246  0.49185  0.38984  1.0000
  N   N4        1.0  0.12507  0.02241  0.40565  1.0000
  H   H44       1.0  0.11478  0.04566  0.41336  1.0000
  Si  Si2       1.0  0.49930  0.00422  0.06319  1.0000
  C   C57       1.0  0.49342  0.96788  0.12335  1.0000
  C   C58       1.0  0.00762  0.53332  0.14339  1.0000
  C   C59       1.0  0.47991  0.55107  0.18765  1.0000
  C   C60       1.0  0.48656  0.57196  0.26331  1.0000
  C   C61       1.0  0.02101  0.57514  0.29858  1.0000
  C   C62       1.0  0.04851  0.55659  0.25611  1.0000
  C   C63       1.0  0.04177  0.53531  0.18139  1.0000
  C   C64       1.0  0.02251  0.94682  0.14832  1.0000
  C   C65       1.0  0.01832  0.91850  0.20776  1.0000
  C   C66       1.0  0.48509  0.91049  0.24570  1.0000
  C   C67       1.0  0.45649  0.93285  0.22503  1.0000
  C   C68       1.0  0.46067  0.96126  0.16570  1.0000
  H   H45       1.0  0.46605  0.58572  0.29051  1.0000
  H   H46       1.0  0.45443  0.54911  0.16565  1.0000
  H   H47       1.0  0.07381  0.55838  0.27936  1.0000
  H   H48       1.0  0.06247  0.52156  0.15495  1.0000
  H   H49       1.0  0.04732  0.95194  0.12473  1.0000
  H   H50       1.0  0.04015  0.90412  0.22423  1.0000
  H   H51       1.0  0.43207  0.92837  0.25179  1.0000
  H   H52       1.0  0.43926  0.97697  0.15399  1.0000
  C   C69       1.0  0.02903  0.60006  0.36632  1.0000
  C   C70       1.0  0.48044  0.88043  0.30167  1.0000
  C   C71       1.0  0.49193  0.81768  0.32554  1.0000
  C   C72       1.0  0.99301  0.78673  0.27319  1.0000
  C   C73       1.0  0.49080  0.75273  0.31113  1.0000
  C   C74       1.0  0.48696  0.74974  0.40538  1.0000
  C   C75       1.0  0.48782  0.71616  0.44715  1.0000
  C   C76       1.0  0.02130  0.70301  0.47119  1.0000
  C   C77       1.0  0.02687  0.66657  0.47874  1.0000
  H   H53       1.0  0.04279  0.71941  0.47339  1.0000
  H   H54       1.0  0.05203  0.65772  0.48797  1.0000
  H   H55       1.0  0.99611  0.78918  0.20566  1.0000
  C   C78       1.0  0.49412  0.72142  0.25147  1.0000
  H   H56       1.0  0.99795  0.72862  0.18166  1.0000
  H   H57       1.0  0.47038  0.70524  0.25515  1.0000
  H   H58       1.0  0.01669  0.70556  0.27166  1.0000
  N   N5        1.0  0.99733  0.84952  0.28418  1.0000
  H   H59       1.0  0.01202  0.84881  0.23083  1.0000
  H   H60       1.0  0.15396  0.48944  0.26888  1.0000
  C   C79       1.0  0.22058  0.97862  0.21114  1.0000
  H   H61       1.0  0.19863  0.46797  0.17236  1.0000
  H   H62       1.0  0.23702  0.95658  0.23184  1.0000
  H   H63       1.0  0.23598  0.49576  0.16746  1.0000
  C   C80       1.0  0.08224  0.99798  0.51314  1.0000
  C   C81       1.0  0.06108  0.96845  0.53525  1.0000
  C   C82       1.0  0.03580  0.97017  0.60368  1.0000
  C   C83       1.0  0.03145  0.00122  0.65480  1.0000
  C   C84       1.0  0.05131  0.53129  0.62988  1.0000
  C   C85       1.0  0.07663  0.52950  0.56166  1.0000
  C   C86       1.0  0.46505  0.51363  0.66510  1.0000
  C   C87       1.0  0.45912  0.54851  0.63514  1.0000
  C   C88       1.0  0.43363  0.55570  0.56947  1.0000
  C   C89       1.0  0.41443  0.52816  0.52817  1.0000
  C   C90       1.0  0.42082  0.99327  0.55705  1.0000
  C   C91       1.0  0.44597  0.98610  0.62322  1.0000
  H   H64       1.0  0.45033  0.96023  0.63910  1.0000
  H   H65       1.0  0.40689  0.97252  0.53129  1.0000
  H   H66       1.0  0.42992  0.58131  0.55023  1.0000
  H   H67       1.0  0.47351  0.56920  0.65984  1.0000
  H   H68       1.0  0.04803  0.55494  0.66159  1.0000
  H   H69       1.0  0.02085  0.94817  0.61583  1.0000
  H   H70       1.0  0.06378  0.94519  0.50139  1.0000
  C   C92       1.0  0.38766  0.53570  0.46443  1.0000
  H   H71       1.0  0.09165  0.55145  0.55040  1.0000
  C   C93       1.0  0.11007  0.99465  0.44953  1.0000
  O   O5        1.0  0.45407  0.88109  0.36255  1.0000
  O   O6        1.0  0.05588  0.62220  0.34530  1.0000
  O   O7        1.0  0.36770  0.56458  0.48062  1.0000
  O   O8        1.0  0.12552  0.96255  0.44290  1.0000
  C   C94       1.0  0.48608  0.78049  0.45839  1.0000
  C   C95       1.0  0.48851  0.81403  0.41887  1.0000
  H   H72       1.0  0.48948  0.83573  0.45922  1.0000
  C   C96       1.0  0.49955  0.64260  0.45761  1.0000
  C   C97       1.0  0.46501  0.65600  0.44716  1.0000
  C   C98       1.0  0.45862  0.69266  0.44160  1.0000
  H   H73       1.0  0.44494  0.63884  0.43270  1.0000
  H   H74       1.0  0.48467  0.77865  0.52638  1.0000
  C   C99       1.0  0.42227  0.70570  0.42443  1.0000
  H   H75       1.0  0.42083  0.71889  0.35998  1.0000
  H   H76       1.0  0.41496  0.72445  0.47635  1.0000
  H   H77       1.0  0.40274  0.68449  0.42468  1.0000
  N   N6        1.0  0.50600  0.60824  0.43324  1.0000
  H   H78       1.0  0.48668  0.59163  0.44290  1.0000
  C   C100      1.0  0.15972  0.02194  0.38158  1.0000
  C   C101      1.0  0.17200  0.50214  0.30827  1.0000
  C   C102      1.0  0.20854  0.99898  0.29013  1.0000
  C   C103      1.0  0.23299  0.01575  0.34847  1.0000
  C   C104      1.0  0.22046  0.03644  0.42007  1.0000
  C   C105      1.0  0.18424  0.03977  0.43593  1.0000
  H   H79       1.0  0.17591  0.05368  0.49041  1.0000
  C   C106      1.0  0.26999  0.01042  0.34440  1.0000
  C   C107      1.0  0.29112  0.53775  0.30865  1.0000
  C   C108      1.0  0.32779  0.53794  0.32173  1.0000
  C   C109      1.0  0.34405  0.01074  0.37055  1.0000
  C   C110      1.0  0.32323  0.98245  0.40199  1.0000
  C   C111      1.0  0.28618  0.98213  0.39147  1.0000
  H   H80       1.0  0.27972  0.55898  0.27804  1.0000
  H   H81       1.0  0.34233  0.55902  0.30001  1.0000
  H   H82       1.0  0.33506  0.96332  0.43961  1.0000
  H   H83       1.0  0.23766  0.04827  0.46355  1.0000
  C   C112      1.0  0.26517  0.95377  0.43546  1.0000
  H   H84       1.0  0.24934  0.93978  0.38617  1.0000
  H   H85       1.0  0.24765  0.96522  0.48525  1.0000
  H   H86       1.0  0.28167  0.93434  0.46909  1.0000
  N   N7        1.0  0.37838  0.01305  0.39750  1.0000
  H   H87       1.0  0.39246  0.99185  0.38984  1.0000
  N   N8        1.0  0.12507  0.52241  0.40565  1.0000
  H   H88       1.0  0.11478  0.54566  0.41336  1.0000
  Si  Si3       1.0  0.99930  0.50422  0.06319  1.0000
  C   C113      1.0  0.99342  0.46788  0.12335  1.0000
  C   C114      1.0  0.50762  0.03332  0.14339  1.0000
  C   C115      1.0  0.97991  0.05106  0.18765  1.0000
  C   C116      1.0  0.98656  0.07196  0.26331  1.0000
  C   C117      1.0  0.52101  0.07514  0.29858  1.0000
  C   C118      1.0  0.54851  0.05659  0.25611  1.0000
  C   C119      1.0  0.54178  0.03531  0.18139  1.0000
  C   C120      1.0  0.52251  0.44682  0.14832  1.0000
  C   C121      1.0  0.51832  0.41850  0.20776  1.0000
  C   C122      1.0  0.98510  0.41049  0.24570  1.0000
  C   C123      1.0  0.95649  0.43285  0.22503  1.0000
  C   C124      1.0  0.96067  0.46126  0.16570  1.0000
  H   H89       1.0  0.96605  0.08572  0.29051  1.0000
  H   H90       1.0  0.95443  0.04911  0.16565  1.0000
  H   H91       1.0  0.57381  0.05838  0.27936  1.0000
  H   H92       1.0  0.56247  0.02156  0.15495  1.0000
  H   H93       1.0  0.54732  0.45194  0.12473  1.0000
  H   H94       1.0  0.54015  0.40412  0.22423  1.0000
  H   H95       1.0  0.93207  0.42837  0.25179  1.0000
  H   H96       1.0  0.93926  0.47696  0.15399  1.0000
  C   C125      1.0  0.52903  0.10006  0.36632  1.0000
  C   C126      1.0  0.98044  0.38044  0.30167  1.0000
  C   C127      1.0  0.99193  0.31767  0.32554  1.0000
  C   C128      1.0  0.49301  0.28674  0.27319  1.0000
  C   C129      1.0  0.99080  0.25273  0.31113  1.0000
  C   C130      1.0  0.98696  0.24974  0.40538  1.0000
  C   C131      1.0  0.98782  0.21616  0.44715  1.0000
  C   C132      1.0  0.52130  0.20300  0.47119  1.0000
  C   C133      1.0  0.52687  0.16657  0.47874  1.0000
  H   H97       1.0  0.54279  0.21941  0.47339  1.0000
  H   H98       1.0  0.55203  0.15772  0.48797  1.0000
  H   H99       1.0  0.49611  0.28918  0.20566  1.0000
  C   C134      1.0  0.99412  0.22142  0.25147  1.0000
  H   H100      1.0  0.49795  0.22862  0.18166  1.0000
  H   H101      1.0  0.97039  0.20524  0.25515  1.0000
  H   H102      1.0  0.51669  0.20556  0.27166  1.0000
  N   N9        1.0  0.49733  0.34952  0.28418  1.0000
  H   H103      1.0  0.51202  0.34881  0.23083  1.0000
  H   H104      1.0  0.65397  0.98944  0.26888  1.0000
  C   C135      1.0  0.72058  0.47861  0.21114  1.0000
  H   H105      1.0  0.69864  0.96797  0.17236  1.0000
  H   H106      1.0  0.73702  0.45658  0.23184  1.0000
  H   H107      1.0  0.73598  0.99575  0.16746  1.0000
  C   C136      1.0  0.58224  0.49798  0.51314  1.0000
  C   C137      1.0  0.56108  0.46845  0.53525  1.0000
  C   C138      1.0  0.53580  0.47017  0.60368  1.0000
  C   C139      1.0  0.53145  0.50122  0.65480  1.0000
  C   C140      1.0  0.55131  0.03128  0.62988  1.0000
  C   C141      1.0  0.57663  0.02950  0.56166  1.0000
  C   C142      1.0  0.96505  0.01363  0.66510  1.0000
  C   C143      1.0  0.95912  0.04852  0.63514  1.0000
  C   C144      1.0  0.93363  0.05570  0.56947  1.0000
  C   C145      1.0  0.91443  0.02816  0.52817  1.0000
  C   C146      1.0  0.92082  0.49327  0.55705  1.0000
  C   C147      1.0  0.94597  0.48610  0.62322  1.0000
  H   H108      1.0  0.95033  0.46023  0.63910  1.0000
  H   H109      1.0  0.90689  0.47252  0.53129  1.0000
  H   H110      1.0  0.92992  0.08131  0.55023  1.0000
  H   H111      1.0  0.97350  0.06920  0.65984  1.0000
  H   H112      1.0  0.54804  0.05494  0.66159  1.0000
  H   H113      1.0  0.52086  0.44817  0.61583  1.0000
  H   H114      1.0  0.56378  0.44519  0.50139  1.0000
  C   C148      1.0  0.88766  0.03570  0.46443  1.0000
  H   H115      1.0  0.59165  0.05144  0.55040  1.0000
  C   C149      1.0  0.61007  0.49465  0.44953  1.0000
  O   O9        1.0  0.95408  0.38109  0.36255  1.0000
  O   O10       1.0  0.55588  0.12220  0.34530  1.0000
  O   O11       1.0  0.86770  0.06458  0.48062  1.0000
  O   O12       1.0  0.62553  0.46256  0.44290  1.0000
  C   C150      1.0  0.98608  0.28048  0.45839  1.0000
  C   C151      1.0  0.98851  0.31403  0.41887  1.0000
  H   H116      1.0  0.98947  0.33573  0.45922  1.0000
  C   C152      1.0  0.99955  0.14259  0.45761  1.0000
  C   C153      1.0  0.96501  0.15600  0.44716  1.0000
  C   C154      1.0  0.95862  0.19267  0.44160  1.0000
  H   H117      1.0  0.94494  0.13884  0.43270  1.0000
  H   H118      1.0  0.98467  0.27865  0.52638  1.0000
  C   C155      1.0  0.92227  0.20570  0.42443  1.0000
  H   H119      1.0  0.92083  0.21889  0.35998  1.0000
  H   H120      1.0  0.91496  0.22445  0.47635  1.0000
  H   H121      1.0  0.90274  0.18449  0.42468  1.0000
  N   N10       1.0  0.00600  0.10824  0.43324  1.0000
  H   H122      1.0  0.98668  0.09163  0.44290  1.0000
  C   C156      1.0  0.65972  0.52194  0.38158  1.0000
  C   C157      1.0  0.67200  0.00214  0.30827  1.0000
  C   C158      1.0  0.70854  0.49898  0.29013  1.0000
  C   C159      1.0  0.73298  0.51575  0.34847  1.0000
  C   C160      1.0  0.72046  0.53644  0.42007  1.0000
  C   C161      1.0  0.68424  0.53977  0.43593  1.0000
  H   H123      1.0  0.67591  0.55368  0.49041  1.0000
  C   C162      1.0  0.76999  0.51042  0.34440  1.0000
  C   C163      1.0  0.79112  0.03775  0.30865  1.0000
  C   C164      1.0  0.82779  0.03794  0.32173  1.0000
  C   C165      1.0  0.84405  0.51074  0.37055  1.0000
  C   C166      1.0  0.82323  0.48244  0.40199  1.0000
  C   C167      1.0  0.78617  0.48213  0.39147  1.0000
  H   H124      1.0  0.77972  0.05898  0.27804  1.0000
  H   H125      1.0  0.84233  0.05901  0.30001  1.0000
  H   H126      1.0  0.83506  0.46331  0.43961  1.0000
  H   H127      1.0  0.73766  0.54827  0.46355  1.0000
  C   C168      1.0  0.76518  0.45377  0.43546  1.0000
  H   H128      1.0  0.74935  0.43978  0.38617  1.0000
  H   H129      1.0  0.74765  0.46522  0.48525  1.0000
  H   H130      1.0  0.78167  0.43434  0.46909  1.0000
  N   N11       1.0  0.87838  0.51306  0.39750  1.0000
  H   H131      1.0  0.89246  0.49185  0.38984  1.0000
  N   N12       1.0  0.62507  0.02241  0.40565  1.0000
  H   H132      1.0  0.61478  0.04566  0.41336  1.0000
  Si  Si4       1.0  0.99930  0.00422  0.06319  1.0000
  C   C169      1.0  0.99342  0.96788  0.12335  1.0000
  C   C170      1.0  0.50762  0.53332  0.14339  1.0000
  C   C171      1.0  0.97990  0.55107  0.18765  1.0000
  C   C172      1.0  0.98656  0.57196  0.26331  1.0000
  C   C173      1.0  0.52101  0.57514  0.29858  1.0000
  C   C174      1.0  0.54851  0.55659  0.25611  1.0000
  C   C175      1.0  0.54178  0.53531  0.18139  1.0000
  C   C176      1.0  0.52251  0.94682  0.14832  1.0000
  C   C177      1.0  0.51832  0.91850  0.20776  1.0000
  C   C178      1.0  0.98510  0.91049  0.24570  1.0000
  C   C179      1.0  0.95649  0.93285  0.22503  1.0000
  C   C180      1.0  0.96067  0.96126  0.16570  1.0000
  H   H133      1.0  0.96605  0.58572  0.29051  1.0000
  H   H134      1.0  0.95443  0.54911  0.16565  1.0000
  H   H135      1.0  0.57381  0.55838  0.27936  1.0000
  H   H136      1.0  0.56247  0.52156  0.15495  1.0000
  H   H137      1.0  0.54732  0.95194  0.12473  1.0000
  H   H138      1.0  0.54015  0.90412  0.22423  1.0000
  H   H139      1.0  0.93207  0.92837  0.25179  1.0000
  H   H140      1.0  0.93926  0.97697  0.15399  1.0000
  C   C181      1.0  0.52903  0.60006  0.36632  1.0000
  C   C182      1.0  0.98044  0.88043  0.30167  1.0000
  C   C183      1.0  0.99192  0.81768  0.32554  1.0000
  C   C184      1.0  0.49301  0.78673  0.27319  1.0000
  C   C185      1.0  0.99080  0.75273  0.31113  1.0000
  C   C186      1.0  0.98696  0.74974  0.40538  1.0000
  C   C187      1.0  0.98782  0.71616  0.44715  1.0000
  C   C188      1.0  0.52130  0.70301  0.47119  1.0000
  C   C189      1.0  0.52687  0.66657  0.47874  1.0000
  H   H141      1.0  0.54279  0.71941  0.47339  1.0000
  H   H142      1.0  0.55203  0.65772  0.48797  1.0000
  H   H143      1.0  0.49611  0.78918  0.20566  1.0000
  C   C190      1.0  0.99412  0.72142  0.25147  1.0000
  H   H144      1.0  0.49795  0.72862  0.18166  1.0000
  H   H145      1.0  0.97038  0.70524  0.25515  1.0000
  H   H146      1.0  0.51669  0.70556  0.27166  1.0000
  N   N13       1.0  0.49733  0.84952  0.28418  1.0000
  H   H147      1.0  0.51202  0.84881  0.23083  1.0000
  H   H148      1.0  0.65396  0.48944  0.26888  1.0000
  C   C191      1.0  0.72058  0.97862  0.21114  1.0000
  H   H149      1.0  0.69864  0.46797  0.17236  1.0000
  H   H150      1.0  0.73702  0.95658  0.23184  1.0000
  H   H151      1.0  0.73598  0.49576  0.16746  1.0000
  C   C192      1.0  0.58225  0.99798  0.51314  1.0000
  C   C193      1.0  0.56108  0.96845  0.53525  1.0000
  C   C194      1.0  0.53580  0.97017  0.60368  1.0000
  C   C195      1.0  0.53145  0.00122  0.65480  1.0000
  C   C196      1.0  0.55131  0.53129  0.62988  1.0000
  C   C197      1.0  0.57663  0.52950  0.56166  1.0000
  C   C198      1.0  0.96505  0.51363  0.66510  1.0000
  C   C199      1.0  0.95912  0.54851  0.63514  1.0000
  C   C200      1.0  0.93363  0.55570  0.56947  1.0000
  C   C201      1.0  0.91443  0.52816  0.52817  1.0000
  C   C202      1.0  0.92082  0.99327  0.55705  1.0000
  C   C203      1.0  0.94597  0.98610  0.62322  1.0000
  H   H152      1.0  0.95033  0.96023  0.63910  1.0000
  H   H153      1.0  0.90689  0.97252  0.53129  1.0000
  H   H154      1.0  0.92992  0.58131  0.55023  1.0000
  H   H155      1.0  0.97350  0.56920  0.65984  1.0000
  H   H156      1.0  0.54804  0.55494  0.66159  1.0000
  H   H157      1.0  0.52085  0.94817  0.61583  1.0000
  H   H158      1.0  0.56379  0.94519  0.50139  1.0000
  C   C204      1.0  0.88766  0.53570  0.46443  1.0000
  H   H159      1.0  0.59165  0.55145  0.55040  1.0000
  C   C205      1.0  0.61007  0.99465  0.44953  1.0000
  O   O13       1.0  0.95408  0.88109  0.36255  1.0000
  O   O14       1.0  0.55588  0.62220  0.34530  1.0000
  O   O15       1.0  0.86770  0.56458  0.48062  1.0000
  O   O16       1.0  0.62553  0.96255  0.44290  1.0000
  C   C206      1.0  0.98608  0.78049  0.45839  1.0000
  C   C207      1.0  0.98851  0.81403  0.41887  1.0000
  H   H160      1.0  0.98947  0.83573  0.45922  1.0000
  C   C208      1.0  0.99955  0.64260  0.45761  1.0000
  C   C209      1.0  0.96501  0.65600  0.44716  1.0000
  C   C210      1.0  0.95862  0.69266  0.44160  1.0000
  H   H161      1.0  0.94494  0.63884  0.43270  1.0000
  H   H162      1.0  0.98467  0.77865  0.52638  1.0000
  C   C211      1.0  0.92227  0.70570  0.42443  1.0000
  H   H163      1.0  0.92083  0.71889  0.35998  1.0000
  H   H164      1.0  0.91497  0.72445  0.47635  1.0000
  H   H165      1.0  0.90274  0.68449  0.42468  1.0000
  N   N14       1.0  0.00600  0.60824  0.43324  1.0000
  H   H166      1.0  0.98668  0.59163  0.44290  1.0000
  C   C212      1.0  0.65972  0.02194  0.38158  1.0000
  C   C213      1.0  0.67200  0.50214  0.30827  1.0000
  C   C214      1.0  0.70854  0.99898  0.29013  1.0000
  C   C215      1.0  0.73298  0.01575  0.34847  1.0000
  C   C216      1.0  0.72047  0.03644  0.42007  1.0000
  C   C217      1.0  0.68424  0.03977  0.43593  1.0000
  H   H167      1.0  0.67591  0.05368  0.49041  1.0000
  C   C218      1.0  0.76999  0.01042  0.34440  1.0000
  C   C219      1.0  0.79112  0.53775  0.30865  1.0000
  C   C220      1.0  0.82779  0.53794  0.32173  1.0000
  C   C221      1.0  0.84405  0.01074  0.37055  1.0000
  C   C222      1.0  0.82323  0.98245  0.40199  1.0000
  C   C223      1.0  0.78618  0.98213  0.39147  1.0000
  H   H168      1.0  0.77972  0.55898  0.27804  1.0000
  H   H169      1.0  0.84233  0.55902  0.30001  1.0000
  H   H170      1.0  0.83506  0.96332  0.43961  1.0000
  H   H171      1.0  0.73766  0.04827  0.46355  1.0000
  C   C224      1.0  0.76518  0.95377  0.43546  1.0000
  H   H172      1.0  0.74935  0.93978  0.38617  1.0000
  H   H173      1.0  0.74765  0.96522  0.48525  1.0000
  H   H174      1.0  0.78167  0.93434  0.46909  1.0000
  N   N15       1.0  0.87838  0.01305  0.39750  1.0000
  H   H175      1.0  0.89246  0.99185  0.38984  1.0000
  N   N16       1.0  0.62507  0.52241  0.40565  1.0000
  H   H176      1.0  0.61478  0.54566  0.41336  1.0000
