data_image0
_chemical_formula_structural       C16H20C16H20C16H20NC2HNHNC2HNHNC2HNHNC2HNHNC2HNHNC2HNHC3NC3NC5NC5NC36H26C4H4C3NC3NC5NC5NC36H26C4H4C3NC3NC5NC5NC36H26C4H4CNCOCH3NHCNCOCH3NHCNCOCH3NHCNCOCH3NHCNCOCH3NHCNCOCH3NH
_chemical_formula_sum              "C246 H186 N36 O6"
_cell_length_a       66.1502
_cell_length_b       66.1502
_cell_length_c       15.0117
_cell_angle_alpha    89.9578
_cell_angle_beta     90.0422
_cell_angle_gamma    120

_space_group_name_H-M_alt    "P 1"
_space_group_IT_number       1

loop_
  _space_group_symop_operation_xyz
  'x, y, z'

loop_
  _atom_site_type_symbol
  _atom_site_label
  _atom_site_symmetry_multiplicity
  _atom_site_fract_x
  _atom_site_fract_y
  _atom_site_fract_z
  _atom_site_occupancy
  C   C1        1.0  0.10149  0.53808  0.25030  1.0000
  C   C2        1.0  0.11974  0.53298  0.25009  1.0000
  C   C3        1.0  0.18810  0.53761  0.27494  1.0000
  C   C4        1.0  0.16830  0.54023  0.27259  1.0000
  C   C5        1.0  0.09836  0.65706  0.26087  1.0000
  C   C6        1.0  0.11386  0.68128  0.26541  1.0000
  C   C7        1.0  0.13311  0.73330  0.29321  1.0000
  C   C8        1.0  0.14866  0.75751  0.29785  1.0000
  C   C9        1.0  0.93970  0.58792  0.25068  1.0000
  C   C10       1.0  0.95778  0.58259  0.25064  1.0000
  C   C11       1.0  0.89150  0.58155  0.27414  1.0000
  C   C12       1.0  0.87200  0.58466  0.27653  1.0000
  C   C13       1.0  0.96072  0.46373  0.26038  1.0000
  C   C14       1.0  0.94501  0.43956  0.26482  1.0000
  C   C15       1.0  0.90894  0.36324  0.29615  1.0000
  C   C16       1.0  0.92490  0.38736  0.29171  1.0000
  H   H1        1.0  0.91031  0.35241  0.25098  1.0000
  H   H2        1.0  0.93774  0.39332  0.24437  1.0000
  H   H3        1.0  0.93738  0.43084  0.20709  1.0000
  H   H4        1.0  0.96444  0.47192  0.19977  1.0000
  H   H5        1.0  0.96436  0.58093  0.19112  1.0000
  H   H6        1.0  0.93373  0.59019  0.19074  1.0000
  H   H7        1.0  0.09453  0.64895  0.20012  1.0000
  H   H8        1.0  0.12125  0.69010  0.20761  1.0000
  H   H9        1.0  0.14688  0.76822  0.25322  1.0000
  H   H10       1.0  0.12015  0.72715  0.24625  1.0000
  H   H11       1.0  0.16839  0.55240  0.23023  1.0000
  H   H12       1.0  0.20178  0.54770  0.23352  1.0000
  H   H13       1.0  0.12568  0.53074  0.19006  1.0000
  H   H14       1.0  0.09477  0.53960  0.19086  1.0000
  H   H15       1.0  0.89109  0.56920  0.23197  1.0000
  H   H16       1.0  0.85819  0.57472  0.23542  1.0000
  H   H17       1.0  0.17809  0.80215  0.32567  1.0000
  H   H18       1.0  0.22435  0.53257  0.29622  1.0000
  H   H19       1.0  0.83636  0.59071  0.29766  1.0000
  H   H20       1.0  0.87878  0.31875  0.32370  1.0000
  C   C17       1.0  0.55404  0.65848  0.25081  1.0000
  C   C18       1.0  0.55913  0.68182  0.25058  1.0000
  C   C19       1.0  0.55451  0.74555  0.27536  1.0000
  C   C20       1.0  0.55187  0.72312  0.27309  1.0000
  C   C21       1.0  0.43503  0.53632  0.26150  1.0000
  C   C22       1.0  0.41082  0.52761  0.26605  1.0000
  C   C23       1.0  0.35880  0.49484  0.29391  1.0000
  C   C24       1.0  0.33459  0.48619  0.29854  1.0000
  C   C25       1.0  0.50417  0.44685  0.25119  1.0000
  C   C26       1.0  0.50951  0.47026  0.25118  1.0000
  C   C27       1.0  0.51052  0.40499  0.27455  1.0000
  C   C28       1.0  0.50741  0.38237  0.27700  1.0000
  C   C29       1.0  0.62839  0.59208  0.26094  1.0000
  C   C30       1.0  0.65256  0.60054  0.26539  1.0000
  C   C31       1.0  0.72888  0.64075  0.29683  1.0000
  C   C32       1.0  0.70475  0.63260  0.29241  1.0000
  H   H21       1.0  0.73970  0.65299  0.25173  1.0000
  H   H22       1.0  0.69880  0.63951  0.24512  1.0000
  H   H23       1.0  0.66128  0.60167  0.20765  1.0000
  H   H24       1.0  0.62021  0.58767  0.20032  1.0000
  H   H25       1.0  0.51116  0.47852  0.19166  1.0000
  H   H26       1.0  0.50189  0.43862  0.19123  1.0000
  H   H27       1.0  0.44314  0.54062  0.20075  1.0000
  H   H28       1.0  0.40199  0.52618  0.20824  1.0000
  H   H29       1.0  0.32388  0.47371  0.25394  1.0000
  H   H30       1.0  0.36494  0.48804  0.24699  1.0000
  H   H31       1.0  0.53972  0.71106  0.23063  1.0000
  H   H32       1.0  0.54443  0.74916  0.23394  1.0000
  H   H33       1.0  0.56139  0.69002  0.19056  1.0000
  H   H34       1.0  0.55253  0.65025  0.19138  1.0000
  H   H35       1.0  0.52289  0.41695  0.23245  1.0000
  H   H36       1.0  0.51736  0.37852  0.23591  1.0000
  H   H37       1.0  0.28996  0.47099  0.32637  1.0000
  H   H38       1.0  0.55955  0.78683  0.29667  1.0000
  H   H39       1.0  0.50138  0.34069  0.29820  1.0000
  H   H40       1.0  0.77336  0.65506  0.32438  1.0000
  C   C33       1.0  0.43365  0.99062  0.25130  1.0000
  C   C34       1.0  0.41031  0.97237  0.25101  1.0000
  C   C35       1.0  0.34658  0.90400  0.27565  1.0000
  C   C36       1.0  0.36900  0.92381  0.27342  1.0000
  C   C37       1.0  0.55576  0.99375  0.26216  1.0000
  C   C38       1.0  0.56447  0.97825  0.26669  1.0000
  C   C39       1.0  0.59725  0.95900  0.29448  1.0000
  C   C40       1.0  0.60591  0.94344  0.29909  1.0000
  C   C41       1.0  0.64523  0.15238  0.25161  1.0000
  C   C42       1.0  0.62182  0.13431  0.25168  1.0000
  C   C43       1.0  0.68709  0.20058  0.27491  1.0000
  C   C44       1.0  0.70971  0.22009  0.27724  1.0000
  C   C45       1.0  0.50004  0.13138  0.26151  1.0000
  C   C46       1.0  0.49157  0.14708  0.26597  1.0000
  C   C47       1.0  0.45135  0.18316  0.29741  1.0000
  C   C48       1.0  0.45950  0.16720  0.29299  1.0000
  H   H41       1.0  0.43912  0.18178  0.25230  1.0000
  H   H42       1.0  0.45260  0.15435  0.24567  1.0000
  H   H43       1.0  0.49045  0.15470  0.20824  1.0000
  H   H44       1.0  0.50445  0.12763  0.20088  1.0000
  H   H45       1.0  0.61354  0.12773  0.19218  1.0000
  H   H46       1.0  0.65344  0.15836  0.19162  1.0000
  H   H47       1.0  0.55146  0.99758  0.20142  1.0000
  H   H48       1.0  0.56589  0.97086  0.20888  1.0000
  H   H49       1.0  0.61838  0.94523  0.25448  1.0000
  H   H50       1.0  0.60405  0.97196  0.24756  1.0000
  H   H51       1.0  0.38109  0.92372  0.23111  1.0000
  H   H52       1.0  0.34299  0.89033  0.23426  1.0000
  H   H53       1.0  0.40213  0.96644  0.19095  1.0000
  H   H54       1.0  0.44190  0.99735  0.19190  1.0000
  H   H55       1.0  0.67511  0.20101  0.23291  1.0000
  H   H56       1.0  0.71353  0.23391  0.23621  1.0000
  H   H57       1.0  0.62112  0.91401  0.32687  1.0000
  H   H58       1.0  0.30529  0.86776  0.29676  1.0000
  H   H59       1.0  0.75140  0.25573  0.29824  1.0000
  H   H60       1.0  0.43704  0.21333  0.32497  1.0000
  N   N1        1.0  0.26062  0.49673  0.25401  1.0000
  C   C49       1.0  0.23893  0.49391  0.24691  1.0000
  C   C50       1.0  0.22764  0.49533  0.32447  1.0000
  H   H61       1.0  0.23178  0.49244  0.18526  1.0000
  N   N2        1.0  0.20663  0.49617  0.32299  1.0000
  H   H62       1.0  0.19870  0.49092  0.26181  1.0000
  N   N3        1.0  0.59538  0.85896  0.25452  1.0000
  C   C51       1.0  0.59821  0.84008  0.24742  1.0000
  C   C52       1.0  0.59678  0.82734  0.32498  1.0000
  H   H63       1.0  0.59968  0.83443  0.18577  1.0000
  N   N4        1.0  0.59594  0.80550  0.32349  1.0000
  H   H64       1.0  0.60120  0.80284  0.26232  1.0000
  N   N5        1.0  0.23318  0.83153  0.25379  1.0000
  C   C53       1.0  0.25207  0.85323  0.24689  1.0000
  C   C54       1.0  0.26477  0.86448  0.32457  1.0000
  H   H65       1.0  0.25776  0.86041  0.18530  1.0000
  N   N6        1.0  0.28661  0.88549  0.32329  1.0000
  H   H66       1.0  0.28932  0.89344  0.26214  1.0000
  N   N7        1.0  0.80163  0.62816  0.25343  1.0000
  C   C55       1.0  0.82310  0.63038  0.24677  1.0000
  C   C56       1.0  0.83409  0.62854  0.32455  1.0000
  H   H67       1.0  0.83026  0.63173  0.18526  1.0000
  N   N8        1.0  0.85480  0.62715  0.32350  1.0000
  H   H68       1.0  0.86277  0.63220  0.26232  1.0000
  N   N9        1.0  0.46394  0.26853  0.25400  1.0000
  C   C57       1.0  0.46172  0.28777  0.24732  1.0000
  C   C58       1.0  0.46355  0.30058  0.32510  1.0000
  H   H69       1.0  0.46036  0.29359  0.18582  1.0000
  N   N10       1.0  0.46494  0.32268  0.32403  1.0000
  H   H70       1.0  0.45989  0.32561  0.26285  1.0000
  N   N11       1.0  0.82353  0.29043  0.25324  1.0000
  C   C59       1.0  0.80429  0.26896  0.24676  1.0000
  C   C60       1.0  0.79152  0.25801  0.32466  1.0000
  H   H71       1.0  0.79843  0.26178  0.18532  1.0000
  N   N12       1.0  0.76942  0.23729  0.32380  1.0000
  H   H72       1.0  0.76644  0.22931  0.26264  1.0000
  C   C61       1.0  0.02046  0.49187  0.32676  1.0000
  C   C62       1.0  0.04452  0.50471  0.32595  1.0000
  C   C63       1.0  0.05126  0.52836  0.32958  1.0000
  N   N13       1.0  0.03110  0.52899  0.33191  1.0000
  C   C64       1.0  0.01195  0.50739  0.33103  1.0000
  C   C65       1.0  0.98792  0.50076  0.33437  1.0000
  C   C66       1.0  0.97923  0.51650  0.33531  1.0000
  N   N14       1.0  0.99166  0.54005  0.33224  1.0000
  C   C67       1.0  0.97774  0.54956  0.33405  1.0000
  C   C68       1.0  0.95486  0.53087  0.33804  1.0000
  C   C69       1.0  0.95578  0.51048  0.33916  1.0000
  C   C70       1.0  0.98463  0.57360  0.33179  1.0000
  C   C71       1.0  0.00810  0.59231  0.32976  1.0000
  N   N15       1.0  0.02826  0.59168  0.33203  1.0000
  C   C72       1.0  0.04741  0.61327  0.33132  1.0000
  C   C73       1.0  0.03889  0.62880  0.32723  1.0000
  C   C74       1.0  0.01484  0.61597  0.32628  1.0000
  C   C75       1.0  0.07144  0.61991  0.33473  1.0000
  C   C76       1.0  0.08013  0.60417  0.33561  1.0000
  N   N16       1.0  0.06770  0.58062  0.33249  1.0000
  C   C77       1.0  0.08162  0.57111  0.33419  1.0000
  C   C78       1.0  0.10450  0.58980  0.33810  1.0000
  C   C79       1.0  0.10358  0.61019  0.33934  1.0000
  C   C80       1.0  0.07473  0.54707  0.33176  1.0000
  C   C81       1.0  0.09278  0.54133  0.33152  1.0000
  C   C82       1.0  0.12973  0.53100  0.33078  1.0000
  C   C83       1.0  0.12059  0.53395  0.41190  1.0000
  C   C84       1.0  0.10235  0.53906  0.41240  1.0000
  C   C85       1.0  0.14919  0.52725  0.33039  1.0000
  C   C86       1.0  0.15047  0.51129  0.38983  1.0000
  C   C87       1.0  0.17030  0.50865  0.39217  1.0000
  C   C88       1.0  0.18944  0.52189  0.33515  1.0000
  C   C89       1.0  0.08801  0.64417  0.33912  1.0000
  C   C90       1.0  0.11941  0.69319  0.34805  1.0000
  C   C91       1.0  0.10901  0.68004  0.42614  1.0000
  C   C92       1.0  0.09346  0.65585  0.42184  1.0000
  C   C93       1.0  0.13505  0.71775  0.35277  1.0000
  C   C94       1.0  0.16673  0.76689  0.36190  1.0000
  C   C95       1.0  0.16863  0.75143  0.42179  1.0000
  C   C96       1.0  0.15302  0.72727  0.41743  1.0000
  C   C97       1.0  0.96659  0.57936  0.33175  1.0000
  C   C98       1.0  0.95726  0.58186  0.41277  1.0000
  C   C99       1.0  0.93919  0.58722  0.41253  1.0000
  C   C100      1.0  0.92998  0.59019  0.33153  1.0000
  C   C101      1.0  0.91079  0.59435  0.33144  1.0000
  C   C102      1.0  0.87113  0.60069  0.33635  1.0000
  C   C103      1.0  0.89044  0.61373  0.39295  1.0000
  C   C104      1.0  0.90997  0.61060  0.39052  1.0000
  C   C105      1.0  0.97134  0.47649  0.33859  1.0000
  C   C106      1.0  0.96597  0.46471  0.42115  1.0000
  C   C107      1.0  0.93950  0.42756  0.34731  1.0000
  C   C108      1.0  0.95021  0.44057  0.42535  1.0000
  C   C109      1.0  0.92350  0.40307  0.35199  1.0000
  C   C110      1.0  0.90565  0.39381  0.41709  1.0000
  C   C111      1.0  0.88964  0.36974  0.42125  1.0000
  C   C112      1.0  0.89099  0.35412  0.36065  1.0000
  H   H73       1.0  0.87677  0.36369  0.46850  1.0000
  H   H74       1.0  0.90376  0.40459  0.46095  1.0000
  H   H75       1.0  0.94701  0.43250  0.48605  1.0000
  H   H76       1.0  0.97366  0.47359  0.47859  1.0000
  H   H77       1.0  0.01099  0.47405  0.32518  1.0000
  H   H78       1.0  0.05514  0.49760  0.32399  1.0000
  H   H79       1.0  0.03047  0.54312  0.33718  1.0000
  H   H80       1.0  0.02889  0.57754  0.33714  1.0000
  H   H81       1.0  0.94154  0.49408  0.34203  1.0000
  H   H82       1.0  0.93983  0.53166  0.34016  1.0000
  H   H83       1.0  0.96333  0.57949  0.47235  1.0000
  H   H84       1.0  0.93232  0.58819  0.47235  1.0000
  H   H85       1.0  0.00422  0.62307  0.32436  1.0000
  H   H86       1.0  0.04837  0.64662  0.32575  1.0000
  H   H87       1.0  0.11954  0.58902  0.34008  1.0000
  H   H88       1.0  0.11783  0.62659  0.34213  1.0000
  H   H89       1.0  0.08594  0.64689  0.47931  1.0000
  H   H90       1.0  0.11224  0.68805  0.48697  1.0000
  H   H91       1.0  0.15530  0.71662  0.46080  1.0000
  H   H92       1.0  0.18158  0.75767  0.46875  1.0000
  H   H93       1.0  0.09638  0.54150  0.47205  1.0000
  H   H94       1.0  0.12767  0.53321  0.47160  1.0000
  H   H95       1.0  0.17084  0.49724  0.43689  1.0000
  H   H96       1.0  0.13697  0.50145  0.43232  1.0000
  H   H97       1.0  0.92362  0.62033  0.43260  1.0000
  H   H98       1.0  0.89024  0.62536  0.43735  1.0000
  C   C113      1.0  0.18407  0.79228  0.36547  1.0000
  C   C114      1.0  0.21092  0.52011  0.34169  1.0000
  C   C115      1.0  0.87319  0.32887  0.36392  1.0000
  C   C116      1.0  0.84998  0.60305  0.34283  1.0000
  H   H99       1.0  0.18560  0.79824  0.43433  1.0000
  H   H100      1.0  0.21770  0.52518  0.40945  1.0000
  H   H101      1.0  0.84323  0.59820  0.41070  1.0000
  H   H102      1.0  0.87157  0.32276  0.43264  1.0000
  C   C117      1.0  0.60024  0.62364  0.32814  1.0000
  C   C118      1.0  0.58740  0.63486  0.32722  1.0000
  C   C119      1.0  0.56374  0.61794  0.33044  1.0000
  N   N17       1.0  0.56312  0.59715  0.33263  1.0000
  C   C120      1.0  0.58472  0.59959  0.33187  1.0000
  C   C121      1.0  0.59135  0.58220  0.33493  1.0000
  C   C122      1.0  0.57561  0.55777  0.33575  1.0000
  N   N18       1.0  0.55206  0.54665  0.33283  1.0000
  C   C123      1.0  0.54255  0.52322  0.33455  1.0000
  C   C124      1.0  0.56124  0.51902  0.33836  1.0000
  C   C125      1.0  0.58163  0.54033  0.33944  1.0000
  C   C126      1.0  0.51851  0.50606  0.33237  1.0000
  C   C127      1.0  0.49980  0.51082  0.33034  1.0000
  N   N19       1.0  0.50042  0.53161  0.33261  1.0000
  C   C128      1.0  0.47883  0.52917  0.33197  1.0000
  C   C129      1.0  0.46330  0.50512  0.32798  1.0000
  C   C130      1.0  0.47614  0.49390  0.32697  1.0000
  C   C131      1.0  0.47220  0.54656  0.33537  1.0000
  C   C132      1.0  0.48793  0.57098  0.33613  1.0000
  N   N20       1.0  0.51148  0.58210  0.33308  1.0000
  C   C133      1.0  0.52098  0.60553  0.33460  1.0000
  C   C134      1.0  0.50229  0.60973  0.33838  1.0000
  C   C135      1.0  0.48191  0.58841  0.33967  1.0000
  C   C136      1.0  0.54503  0.62269  0.33229  1.0000
  C   C137      1.0  0.55077  0.64648  0.33203  1.0000
  C   C138      1.0  0.56110  0.69377  0.33126  1.0000
  C   C139      1.0  0.55811  0.68164  0.41239  1.0000
  C   C140      1.0  0.55302  0.65829  0.41291  1.0000
  C   C141      1.0  0.56486  0.71697  0.33086  1.0000
  C   C142      1.0  0.58080  0.73419  0.39033  1.0000
  C   C143      1.0  0.58345  0.75666  0.39265  1.0000
  C   C144      1.0  0.57022  0.76258  0.33560  1.0000
  C   C145      1.0  0.44793  0.53886  0.33976  1.0000
  C   C146      1.0  0.39891  0.52125  0.34870  1.0000
  C   C147      1.0  0.41207  0.52399  0.42680  1.0000
  C   C148      1.0  0.43625  0.53263  0.42249  1.0000
  C   C149      1.0  0.37435  0.51233  0.35342  1.0000
  C   C150      1.0  0.32522  0.49488  0.36256  1.0000
  C   C151      1.0  0.34068  0.51222  0.42241  1.0000
  C   C152      1.0  0.36484  0.52079  0.41801  1.0000
  C   C153      1.0  0.51275  0.48227  0.33230  1.0000
  C   C154      1.0  0.51025  0.47040  0.41330  1.0000
  C   C155      1.0  0.50491  0.44698  0.41302  1.0000
  C   C156      1.0  0.50191  0.43482  0.33201  1.0000
  C   C157      1.0  0.49773  0.41147  0.33189  1.0000
  C   C158      1.0  0.49139  0.36546  0.33684  1.0000
  C   C159      1.0  0.47835  0.37171  0.39343  1.0000
  C   C160      1.0  0.48148  0.39438  0.39100  1.0000
  C   C161      1.0  0.61562  0.58988  0.33916  1.0000
  C   C162      1.0  0.62738  0.59621  0.42174  1.0000
  C   C163      1.0  0.66455  0.60696  0.34791  1.0000
  C   C164      1.0  0.65152  0.60459  0.42596  1.0000
  C   C165      1.0  0.68903  0.61545  0.35259  1.0000
  C   C166      1.0  0.69829  0.60681  0.41763  1.0000
  C   C167      1.0  0.72236  0.61486  0.42179  1.0000
  C   C168      1.0  0.73798  0.63187  0.36127  1.0000
  H   H103      1.0  0.72840  0.60801  0.46899  1.0000
  H   H104      1.0  0.68751  0.59411  0.46143  1.0000
  H   H105      1.0  0.65959  0.60942  0.48669  1.0000
  H   H106      1.0  0.61850  0.59498  0.47921  1.0000
  H   H107      1.0  0.61806  0.63199  0.32667  1.0000
  H   H108      1.0  0.59450  0.65258  0.32551  1.0000
  H   H109      1.0  0.54897  0.58237  0.33682  1.0000
  H   H110      1.0  0.51456  0.54638  0.33766  1.0000
  H   H111      1.0  0.59803  0.54248  0.34222  1.0000
  H   H112      1.0  0.56045  0.50320  0.34041  1.0000
  H   H113      1.0  0.51263  0.47882  0.47289  1.0000
  H   H114      1.0  0.50391  0.43910  0.47284  1.0000
  H   H115      1.0  0.46903  0.47618  0.32529  1.0000
  H   H116      1.0  0.44548  0.49677  0.32672  1.0000
  H   H117      1.0  0.50307  0.62555  0.34023  1.0000
  H   H118      1.0  0.46550  0.58626  0.34241  1.0000
  H   H119      1.0  0.44522  0.53405  0.47997  1.0000
  H   H120      1.0  0.40406  0.51920  0.48763  1.0000
  H   H121      1.0  0.37549  0.53369  0.46139  1.0000
  H   H122      1.0  0.33444  0.51893  0.46933  1.0000
  H   H123      1.0  0.55057  0.64986  0.47256  1.0000
  H   H124      1.0  0.55887  0.68945  0.47209  1.0000
  H   H125      1.0  0.59485  0.76858  0.43742  1.0000
  H   H126      1.0  0.59064  0.73051  0.43284  1.0000
  H   H127      1.0  0.47176  0.39829  0.43311  1.0000
  H   H128      1.0  0.46673  0.35988  0.43787  1.0000
  C   C169      1.0  0.29983  0.48683  0.36609  1.0000
  C   C170      1.0  0.57200  0.78584  0.34215  1.0000
  C   C171      1.0  0.76324  0.63933  0.36452  1.0000
  C   C172      1.0  0.48903  0.34195  0.34335  1.0000
  H   H129      1.0  0.29386  0.48240  0.43497  1.0000
  H   H130      1.0  0.56692  0.78752  0.40990  1.0000
  H   H131      1.0  0.49389  0.34004  0.41123  1.0000
  H   H132      1.0  0.76934  0.64376  0.43326  1.0000
  C   C173      1.0  0.46848  0.07164  0.32835  1.0000
  C   C174      1.0  0.45725  0.04758  0.32752  1.0000
  C   C175      1.0  0.47417  0.04084  0.33090  1.0000
  N   N21       1.0  0.49496  0.06101  0.33315  1.0000
  C   C176      1.0  0.49252  0.08016  0.33231  1.0000
  C   C177      1.0  0.50991  0.10419  0.33547  1.0000
  C   C178      1.0  0.53434  0.11287  0.33639  1.0000
  N   N22       1.0  0.54546  0.10044  0.33343  1.0000
  C   C179      1.0  0.56889  0.11436  0.33520  1.0000
  C   C180      1.0  0.57309  0.13725  0.33902  1.0000
  C   C181      1.0  0.55178  0.13632  0.34014  1.0000
  C   C182      1.0  0.58605  0.10747  0.33299  1.0000
  C   C183      1.0  0.58128  0.08400  0.33101  1.0000
  N   N23       1.0  0.56049  0.06384  0.33335  1.0000
  C   C184      1.0  0.56293  0.04469  0.33267  1.0000
  C   C185      1.0  0.58697  0.05320  0.32856  1.0000
  C   C186      1.0  0.59820  0.07726  0.32762  1.0000
  C   C187      1.0  0.54554  0.02066  0.33606  1.0000
  C   C188      1.0  0.52111  0.01197  0.33682  1.0000
  N   N24       1.0  0.51000  0.02441  0.33373  1.0000
  C   C189      1.0  0.48657  0.01048  0.33527  1.0000
  C   C190      1.0  0.48237  0.98760  0.33912  1.0000
  C   C191      1.0  0.50368  0.98852  0.34043  1.0000
  C   C192      1.0  0.46941  0.01737  0.33289  1.0000
  C   C193      1.0  0.44562  0.99933  0.33257  1.0000
  C   C194      1.0  0.39834  0.96237  0.33165  1.0000
  C   C195      1.0  0.41044  0.97150  0.41283  1.0000
  C   C196      1.0  0.43379  0.98975  0.41341  1.0000
  C   C197      1.0  0.37514  0.94292  0.33118  1.0000
  C   C198      1.0  0.35790  0.94163  0.39052  1.0000
  C   C199      1.0  0.33543  0.92181  0.39277  1.0000
  C   C200      1.0  0.32953  0.90267  0.33575  1.0000
  C   C201      1.0  0.55324  0.00409  0.34042  1.0000
  C   C202      1.0  0.57085  0.97268  0.34933  1.0000
  C   C203      1.0  0.56811  0.98307  0.42743  1.0000
  C   C204      1.0  0.55948  0.99862  0.42314  1.0000
  C   C205      1.0  0.57977  0.95704  0.35403  1.0000
  C   C206      1.0  0.59722  0.92536  0.36310  1.0000
  C   C207      1.0  0.57988  0.92345  0.42298  1.0000
  C   C208      1.0  0.57132  0.93906  0.41863  1.0000
  C   C209      1.0  0.60984  0.12551  0.33285  1.0000
  C   C210      1.0  0.62173  0.13484  0.41381  1.0000
  C   C211      1.0  0.64516  0.15291  0.41345  1.0000
  C   C212      1.0  0.65728  0.16211  0.33239  1.0000
  C   C213      1.0  0.68063  0.18130  0.33219  1.0000
  C   C214      1.0  0.72664  0.22096  0.33695  1.0000
  C   C215      1.0  0.72041  0.20165  0.39350  1.0000
  C   C216      1.0  0.69775  0.18212  0.39117  1.0000
  C   C217      1.0  0.50224  0.12078  0.33972  1.0000
  C   C218      1.0  0.49589  0.12617  0.42230  1.0000
  C   C219      1.0  0.48514  0.15261  0.34849  1.0000
  C   C220      1.0  0.48751  0.14192  0.42652  1.0000
  C   C221      1.0  0.47665  0.16861  0.35318  1.0000
  C   C222      1.0  0.48529  0.18647  0.41824  1.0000
  C   C223      1.0  0.47724  0.20249  0.42237  1.0000
  C   C224      1.0  0.46023  0.20113  0.36185  1.0000
  H   H133      1.0  0.48408  0.21537  0.46959  1.0000
  H   H134      1.0  0.49799  0.18838  0.46203  1.0000
  H   H135      1.0  0.48267  0.14513  0.48725  1.0000
  H   H136      1.0  0.49711  0.11849  0.47975  1.0000
  H   H137      1.0  0.46013  0.08112  0.32679  1.0000
  H   H138      1.0  0.43953  0.03697  0.32563  1.0000
  H   H139      1.0  0.50973  0.06164  0.33779  1.0000
  H   H140      1.0  0.54572  0.06321  0.33847  1.0000
  H   H141      1.0  0.54963  0.15057  0.34291  1.0000
  H   H142      1.0  0.58891  0.15228  0.34113  1.0000
  H   H143      1.0  0.61333  0.12878  0.47343  1.0000
  H   H144      1.0  0.65305  0.15978  0.47324  1.0000
  H   H145      1.0  0.61592  0.08788  0.32564  1.0000
  H   H146      1.0  0.59532  0.04373  0.32715  1.0000
  H   H147      1.0  0.46655  0.97256  0.34099  1.0000
  H   H148      1.0  0.50584  0.97427  0.34320  1.0000
  H   H149      1.0  0.55806  0.00615  0.48063  1.0000
  H   H150      1.0  0.57292  0.97984  0.48825  1.0000
  H   H151      1.0  0.55841  0.93678  0.46199  1.0000
  H   H152      1.0  0.57317  0.91049  0.46989  1.0000
  H   H153      1.0  0.44220  0.99572  0.47308  1.0000
  H   H154      1.0  0.40262  0.96443  0.47250  1.0000
  H   H155      1.0  0.32348  0.92127  0.43741  1.0000
  H   H156      1.0  0.36156  0.95514  0.43298  1.0000
  H   H157      1.0  0.69386  0.16847  0.43324  1.0000
  H   H158      1.0  0.73227  0.20184  0.43784  1.0000
  C   C225      1.0  0.60527  0.90802  0.36661  1.0000
  C   C226      1.0  0.30626  0.88119  0.34218  1.0000
  C   C227      1.0  0.45278  0.21893  0.36510  1.0000
  C   C228      1.0  0.75016  0.24211  0.34333  1.0000
  H   H159      1.0  0.60971  0.90646  0.43548  1.0000
  H   H160      1.0  0.30454  0.87441  0.40994  1.0000
  H   H161      1.0  0.75210  0.24885  0.41123  1.0000
  H   H162      1.0  0.44834  0.22058  0.43384  1.0000
  C   C229      1.0  0.27174  0.49975  0.33314  1.0000
  N   N25       1.0  0.23894  0.49852  0.40341  1.0000
  C   C230      1.0  0.26014  0.50009  0.41180  1.0000
  O   O1        1.0  0.27137  0.50554  0.49228  1.0000
  C   C231      1.0  0.25975  0.48812  0.56001  1.0000
  H   H163      1.0  0.27060  0.49372  0.61968  1.0000
  H   H164      1.0  0.25739  0.47122  0.53953  1.0000
  H   H165      1.0  0.24282  0.48622  0.57692  1.0000
  N   N26       1.0  0.29518  0.50507  0.33043  1.0000
  H   H166      1.0  0.30518  0.52081  0.36182  1.0000
  C   C232      1.0  0.59235  0.86701  0.33365  1.0000
  N   N27       1.0  0.59359  0.83543  0.40391  1.0000
  C   C233      1.0  0.59202  0.85506  0.41231  1.0000
  O   O2        1.0  0.58656  0.86081  0.49278  1.0000
  C   C234      1.0  0.60398  0.86658  0.56053  1.0000
  H   H167      1.0  0.59837  0.87181  0.62020  1.0000
  H   H168      1.0  0.62088  0.88113  0.54006  1.0000
  H   H169      1.0  0.60588  0.85154  0.57743  1.0000
  N   N28       1.0  0.58704  0.88515  0.33094  1.0000
  H   H170      1.0  0.57130  0.87940  0.36234  1.0000
  C   C235      1.0  0.22509  0.82038  0.33283  1.0000
  N   N29       1.0  0.25664  0.85314  0.40341  1.0000
  C   C236      1.0  0.23700  0.83193  0.41161  1.0000
  O   O3        1.0  0.23121  0.82067  0.49200  1.0000
  C   C237      1.0  0.22541  0.83226  0.55977  1.0000
  H   H171      1.0  0.22015  0.82138  0.61936  1.0000
  H   H172      1.0  0.21088  0.83464  0.53924  1.0000
  H   H173      1.0  0.24044  0.84918  0.57683  1.0000
  N   N30       1.0  0.20696  0.79694  0.32993  1.0000
  H   H174      1.0  0.21269  0.78692  0.36131  1.0000
  C   C238      1.0  0.79051  0.62535  0.33235  1.0000
  N   N31       1.0  0.82278  0.62558  0.40327  1.0000
  C   C239      1.0  0.80183  0.62460  0.41123  1.0000
  O   O4        1.0  0.79052  0.61933  0.49148  1.0000
  C   C240      1.0  0.80240  0.63657  0.55951  1.0000
  H   H175      1.0  0.79147  0.63115  0.61894  1.0000
  H   H176      1.0  0.80528  0.65368  0.53915  1.0000
  H   H177      1.0  0.81910  0.63796  0.57676  1.0000
  N   N32       1.0  0.76728  0.62067  0.32921  1.0000
  H   H178      1.0  0.75692  0.60500  0.36060  1.0000
  C   C241      1.0  0.46675  0.26019  0.33291  1.0000
  N   N33       1.0  0.46651  0.29220  0.40382  1.0000
  C   C242      1.0  0.46750  0.27223  0.41179  1.0000
  O   O5        1.0  0.47277  0.26617  0.49204  1.0000
  C   C243      1.0  0.45553  0.26079  0.56008  1.0000
  H   H179      1.0  0.46096  0.25526  0.61951  1.0000
  H   H180      1.0  0.43843  0.24656  0.53971  1.0000
  H   H181      1.0  0.45415  0.27610  0.57732  1.0000
  N   N34       1.0  0.47143  0.24164  0.32979  1.0000
  H   H182      1.0  0.48710  0.24694  0.36118  1.0000
  C   C244      1.0  0.83191  0.30158  0.33207  1.0000
  N   N35       1.0  0.79994  0.26935  0.40329  1.0000
  C   C245      1.0  0.81991  0.29030  0.41107  1.0000
  O   O6        1.0  0.82602  0.30165  0.49124  1.0000
  C   C246      1.0  0.83142  0.28979  0.55929  1.0000
  H   H183      1.0  0.83699  0.30075  0.61864  1.0000
  H   H184      1.0  0.84564  0.28690  0.53887  1.0000
  H   H185      1.0  0.81612  0.27311  0.57669  1.0000
  N   N36       1.0  0.85047  0.32482  0.32876  1.0000
  H   H186      1.0  0.84518  0.33519  0.36014  1.0000
