data_image0
_chemical_formula_structural       C4H2C4H2N2C4H2C4H2N2C4H2C4H2N2C2H2C3H2CHC2H2C3H2CHC2H2C3H2CHC2H2C3H2CHC2H2C3H2CHC2H2C3H2CHC2HC2HN2C2HC2HN2C2HC2HN2C7H3NH2CHC7H3NH2CHC7H3NH2CHC7H3NH2CHC7H3NH2CHC7H3NH2CH
_chemical_formula_sum              "C120 H84 N18"
_cell_length_a       39.0647
_cell_length_b       39.0646
_cell_length_c       14.936
_cell_angle_alpha    90
_cell_angle_beta     90
_cell_angle_gamma    120

_space_group_name_H-M_alt    "P 1"
_space_group_IT_number       1

loop_
  _space_group_symop_operation_xyz
  'x, y, z'

loop_
  _atom_site_type_symbol
  _atom_site_label
  _atom_site_symmetry_multiplicity
  _atom_site_fract_x
  _atom_site_fract_y
  _atom_site_fract_z
  _atom_site_occupancy
  C   C1        1.0  0.98157  0.49104  0.33806  1.0000
  C   C2        1.0  0.89684  0.44745  0.33741  1.0000
  C   C3        1.0  0.91783  0.42711  0.32998  1.0000
  C   C4        1.0  0.95962  0.44904  0.32811  1.0000
  H   H1        1.0  0.97364  0.43334  0.31767  1.0000
  H   H2        1.0  0.86648  0.43181  0.33773  1.0000
  C   C5        1.0  0.02486  0.51331  0.33796  1.0000
  C   C6        1.0  0.04680  0.55530  0.32776  1.0000
  C   C7        1.0  0.08859  0.57724  0.32943  1.0000
  C   C8        1.0  0.10959  0.55691  0.33696  1.0000
  H   H3        1.0  0.03278  0.57099  0.31727  1.0000
  H   H4        1.0  0.13995  0.57255  0.33717  1.0000
  N   N1        1.0  0.11070  0.61636  0.32603  1.0000
  N   N2        1.0  0.89571  0.38799  0.32675  1.0000
  C   C9        1.0  0.51431  0.49161  0.33809  1.0000
  C   C10       1.0  0.55785  0.45039  0.33753  1.0000
  C   C11       1.0  0.57823  0.49174  0.33037  1.0000
  C   C12       1.0  0.55632  0.51162  0.32846  1.0000
  H   H5        1.0  0.57209  0.54135  0.31838  1.0000
  H   H6        1.0  0.57347  0.43566  0.33788  1.0000
  C   C13       1.0  0.49206  0.51266  0.33806  1.0000
  C   C14       1.0  0.45003  0.49264  0.32855  1.0000
  C   C15       1.0  0.42813  0.51253  0.33037  1.0000
  C   C16       1.0  0.44851  0.55388  0.33740  1.0000
  H   H7        1.0  0.43427  0.46290  0.31863  1.0000
  H   H8        1.0  0.43290  0.56862  0.33772  1.0000
  N   N3        1.0  0.38901  0.49557  0.32769  1.0000
  N   N4        1.0  0.61735  0.50871  0.32751  1.0000
  C   C17       1.0  0.51373  0.02382  0.33840  1.0000
  C   C18       1.0  0.55488  0.10858  0.33766  1.0000
  C   C19       1.0  0.51353  0.08758  0.33084  1.0000
  C   C20       1.0  0.49368  0.04580  0.32904  1.0000
  H   H9        1.0  0.46393  0.03181  0.31923  1.0000
  H   H10       1.0  0.56959  0.13894  0.33794  1.0000
  C   C21       1.0  0.49271  0.98051  0.33843  1.0000
  C   C22       1.0  0.51276  0.95853  0.32902  1.0000
  C   C23       1.0  0.49290  0.91675  0.33083  1.0000
  C   C24       1.0  0.45156  0.89575  0.33775  1.0000
  H   H11       1.0  0.54250  0.97252  0.31915  1.0000
  H   H12       1.0  0.43684  0.86540  0.33803  1.0000
  N   N5        1.0  0.50989  0.89461  0.32806  1.0000
  N   N6        1.0  0.49653  0.10971  0.32812  1.0000
  C   C25       1.0  0.26943  0.46171  0.27205  1.0000
  C   C26       1.0  0.30632  0.46367  0.26840  1.0000
  H   H13       1.0  0.25940  0.46888  0.21571  1.0000
  H   H14       1.0  0.32196  0.47195  0.20968  1.0000
  C   C27       1.0  0.14275  0.46140  0.35189  1.0000
  C   C28       1.0  0.14467  0.43172  0.30147  1.0000
  C   C29       1.0  0.17901  0.42846  0.30181  1.0000
  H   H15       1.0  0.12130  0.41263  0.26243  1.0000
  H   H16       1.0  0.17956  0.40690  0.26391  1.0000
  C   C30       1.0  0.10936  0.46547  0.34754  1.0000
  H   H17       1.0  0.08311  0.44213  0.33418  1.0000
  C   C31       1.0  0.54358  0.80885  0.27198  1.0000
  C   C32       1.0  0.54160  0.84377  0.26855  1.0000
  H   H18       1.0  0.53627  0.79162  0.21567  1.0000
  H   H19       1.0  0.53317  0.85109  0.20999  1.0000
  C   C33       1.0  0.54413  0.68255  0.35098  1.0000
  C   C34       1.0  0.57362  0.71410  0.30011  1.0000
  C   C35       1.0  0.57690  0.75171  0.30068  1.0000
  H   H20       1.0  0.59255  0.70979  0.26056  1.0000
  H   H21       1.0  0.59831  0.77378  0.26243  1.0000
  C   C36       1.0  0.54000  0.64507  0.34636  1.0000
  H   H22       1.0  0.56335  0.64215  0.33326  1.0000
  C   C37       1.0  0.19643  0.73590  0.27100  1.0000
  C   C38       1.0  0.16148  0.69903  0.26726  1.0000
  H   H23       1.0  0.21358  0.74601  0.21461  1.0000
  H   H24       1.0  0.15406  0.68348  0.20841  1.0000
  C   C39       1.0  0.32284  0.86251  0.35106  1.0000
  C   C40       1.0  0.29121  0.86063  0.30086  1.0000
  C   C41       1.0  0.25361  0.82629  0.30116  1.0000
  H   H25       1.0  0.29545  0.88405  0.26203  1.0000
  H   H26       1.0  0.23148  0.82578  0.26345  1.0000
  C   C42       1.0  0.36029  0.89592  0.34679  1.0000
  H   H27       1.0  0.36318  0.92220  0.33393  1.0000
  C   C43       1.0  0.73689  0.54246  0.27215  1.0000
  C   C44       1.0  0.70000  0.54051  0.26850  1.0000
  H   H28       1.0  0.74691  0.53528  0.21583  1.0000
  H   H29       1.0  0.68435  0.53220  0.20980  1.0000
  C   C45       1.0  0.86365  0.54293  0.35191  1.0000
  C   C46       1.0  0.86168  0.57257  0.30143  1.0000
  C   C47       1.0  0.82733  0.57579  0.30177  1.0000
  H   H30       1.0  0.88502  0.59164  0.26227  1.0000
  H   H31       1.0  0.82674  0.59732  0.26381  1.0000
  C   C48       1.0  0.89706  0.53888  0.34754  1.0000
  H   H32       1.0  0.92330  0.56222  0.33415  1.0000
  C   C49       1.0  0.46257  0.19532  0.27211  1.0000
  C   C50       1.0  0.46455  0.16040  0.26861  1.0000
  H   H33       1.0  0.46973  0.21249  0.21573  1.0000
  H   H34       1.0  0.47284  0.15301  0.20994  1.0000
  C   C51       1.0  0.46229  0.32174  0.35149  1.0000
  C   C52       1.0  0.43262  0.29012  0.30109  1.0000
  C   C53       1.0  0.42934  0.25252  0.30156  1.0000
  H   H35       1.0  0.41353  0.29439  0.26198  1.0000
  H   H36       1.0  0.40778  0.23040  0.26368  1.0000
  C   C54       1.0  0.46637  0.35921  0.34706  1.0000
  H   H37       1.0  0.44304  0.36212  0.33358  1.0000
  C   C55       1.0  0.80993  0.26853  0.27116  1.0000
  C   C56       1.0  0.84486  0.30542  0.26757  1.0000
  H   H38       1.0  0.79271  0.25855  0.21484  1.0000
  H   H39       1.0  0.85222  0.32109  0.20892  1.0000
  C   C57       1.0  0.68360  0.14177  0.35063  1.0000
  C   C58       1.0  0.71515  0.14379  0.29980  1.0000
  C   C59       1.0  0.75275  0.17812  0.30025  1.0000
  H   H40       1.0  0.71084  0.12051  0.26039  1.0000
  H   H41       1.0  0.77482  0.17875  0.26204  1.0000
  C   C60       1.0  0.64613  0.10839  0.34617  1.0000
  H   H42       1.0  0.64321  0.08212  0.33311  1.0000
  C   C61       1.0  0.95841  0.50981  0.34828  1.0000
  C   C62       1.0  0.91662  0.48874  0.34587  1.0000
  H   H43       1.0  0.97155  0.53942  0.35938  1.0000
  C   C63       1.0  0.08982  0.51563  0.34566  1.0000
  C   C64       1.0  0.04803  0.49456  0.34822  1.0000
  H   H44       1.0  0.03490  0.46496  0.35954  1.0000
  N   N7        1.0  0.11309  0.50000  0.35171  1.0000
  N   N8        1.0  0.89335  0.50437  0.35183  1.0000
  C   C65       1.0  0.49551  0.44966  0.34798  1.0000
  C   C66       1.0  0.51655  0.42891  0.34561  1.0000
  H   H45       1.0  0.46588  0.43316  0.35880  1.0000
  C   C67       1.0  0.48982  0.57537  0.34535  1.0000
  C   C68       1.0  0.51086  0.55462  0.34774  1.0000
  H   H46       1.0  0.54050  0.57113  0.35847  1.0000
  N   N9        1.0  0.50549  0.61428  0.35098  1.0000
  N   N10       1.0  0.50089  0.39001  0.35149  1.0000
  C   C69       1.0  0.55570  0.04701  0.34788  1.0000
  C   C70       1.0  0.57641  0.08881  0.34549  1.0000
  H   H47       1.0  0.57224  0.03392  0.35850  1.0000
  C   C71       1.0  0.43003  0.91553  0.34566  1.0000
  C   C72       1.0  0.45075  0.95732  0.34805  1.0000
  H   H48       1.0  0.43420  0.97042  0.35865  1.0000
  N   N11       1.0  0.39112  0.89225  0.35118  1.0000
  N   N12       1.0  0.61532  0.11208  0.35094  1.0000
  C   C73       1.0  0.32220  0.45571  0.34522  1.0000
  C   C74       1.0  0.29996  0.44523  0.42526  1.0000
  C   C75       1.0  0.26280  0.44335  0.43061  1.0000
  C   C76       1.0  0.24749  0.45211  0.35264  1.0000
  C   C77       1.0  0.21224  0.45443  0.35367  1.0000
  C   C78       1.0  0.21041  0.48400  0.40440  1.0000
  C   C79       1.0  0.17618  0.48735  0.40374  1.0000
  H   H49       1.0  0.23422  0.50367  0.44157  1.0000
  H   H50       1.0  0.17611  0.50928  0.44113  1.0000
  H   H51       1.0  0.31151  0.43982  0.48161  1.0000
  N   N13       1.0  0.24309  0.43295  0.51008  1.0000
  H   H52       1.0  0.25389  0.42662  0.56217  1.0000
  H   H53       1.0  0.21680  0.42945  0.51647  1.0000
  C   C80       1.0  0.35997  0.46099  0.34501  1.0000
  H   H54       1.0  0.36471  0.44017  0.37021  1.0000
  C   C81       1.0  0.54977  0.86766  0.34534  1.0000
  C   C82       1.0  0.56051  0.85599  0.42513  1.0000
  C   C83       1.0  0.56243  0.82073  0.43027  1.0000
  C   C84       1.0  0.55342  0.79658  0.35236  1.0000
  C   C85       1.0  0.55114  0.75903  0.35323  1.0000
  C   C86       1.0  0.52176  0.72766  0.40440  1.0000
  C   C87       1.0  0.51839  0.69008  0.40351  1.0000
  H   H55       1.0  0.50223  0.73183  0.44206  1.0000
  H   H56       1.0  0.49659  0.66810  0.44124  1.0000
  H   H57       1.0  0.56608  0.87298  0.48145  1.0000
  N   N14       1.0  0.57309  0.81149  0.50950  1.0000
  H   H58       1.0  0.57967  0.82871  0.56148  1.0000
  H   H59       1.0  0.57671  0.78876  0.51562  1.0000
  C   C88       1.0  0.54447  0.90015  0.34537  1.0000
  H   H60       1.0  0.56528  0.92569  0.37064  1.0000
  C   C89       1.0  0.13769  0.68307  0.34411  1.0000
  C   C90       1.0  0.14949  0.70523  0.42426  1.0000
  C   C91       1.0  0.18478  0.74236  0.42971  1.0000
  C   C92       1.0  0.20882  0.75775  0.35171  1.0000
  C   C93       1.0  0.24638  0.79300  0.35277  1.0000
  C   C94       1.0  0.27782  0.79478  0.40326  1.0000
  C   C95       1.0  0.31539  0.82902  0.40264  1.0000
  H   H61       1.0  0.27370  0.77094  0.44028  1.0000
  H   H62       1.0  0.33741  0.82906  0.43992  1.0000
  H   H63       1.0  0.13256  0.69363  0.48062  1.0000
  N   N15       1.0  0.19413  0.76200  0.50929  1.0000
  H   H64       1.0  0.17709  0.75111  0.56146  1.0000
  H   H65       1.0  0.21699  0.78823  0.51583  1.0000
  C   C96       1.0  0.10509  0.64534  0.34364  1.0000
  H   H66       1.0  0.07979  0.64050  0.37057  1.0000
  C   C97       1.0  0.68414  0.54850  0.34530  1.0000
  C   C98       1.0  0.70640  0.55904  0.42531  1.0000
  C   C99       1.0  0.74356  0.56093  0.43065  1.0000
  C   C100      1.0  0.75886  0.55213  0.35272  1.0000
  C   C101      1.0  0.79412  0.54984  0.35373  1.0000
  C   C102      1.0  0.79600  0.52031  0.40453  1.0000
  C   C103      1.0  0.83025  0.51700  0.40387  1.0000
  H   H67       1.0  0.77223  0.50067  0.44180  1.0000
  H   H68       1.0  0.83036  0.49510  0.44132  1.0000
  H   H69       1.0  0.69488  0.56449  0.48163  1.0000
  N   N16       1.0  0.76331  0.57140  0.51008  1.0000
  H   H70       1.0  0.75248  0.57767  0.56222  1.0000
  H   H71       1.0  0.78956  0.57481  0.51653  1.0000
  C   C104      1.0  0.64638  0.54327  0.34505  1.0000
  H   H72       1.0  0.64154  0.56392  0.37086  1.0000
  C   C105      1.0  0.45663  0.13662  0.34552  1.0000
  C   C106      1.0  0.44613  0.14841  0.42550  1.0000
  C   C107      1.0  0.44422  0.18367  0.43070  1.0000
  C   C108      1.0  0.45296  0.20769  0.35264  1.0000
  C   C109      1.0  0.45529  0.24527  0.35353  1.0000
  C   C110      1.0  0.48486  0.27669  0.40423  1.0000
  C   C111      1.0  0.48821  0.31426  0.40345  1.0000
  H   H73       1.0  0.50451  0.27256  0.44148  1.0000
  H   H74       1.0  0.51014  0.33628  0.44084  1.0000
  H   H75       1.0  0.44074  0.13150  0.48191  1.0000
  N   N17       1.0  0.43382  0.19302  0.51012  1.0000
  H   H76       1.0  0.42751  0.17594  0.56226  1.0000
  H   H77       1.0  0.43030  0.21581  0.51640  1.0000
  C   C112      1.0  0.46194  0.10415  0.34545  1.0000
  H   H78       1.0  0.44114  0.07859  0.37071  1.0000
  C   C113      1.0  0.86875  0.32121  0.34436  1.0000
  C   C114      1.0  0.85704  0.29889  0.42429  1.0000
  C   C115      1.0  0.82176  0.26173  0.42956  1.0000
  C   C116      1.0  0.79763  0.24651  0.35165  1.0000
  C   C117      1.0  0.76007  0.21124  0.35262  1.0000
  C   C118      1.0  0.72871  0.20930  0.40375  1.0000
  C   C119      1.0  0.69114  0.17508  0.40298  1.0000
  H   H79       1.0  0.73289  0.23303  0.44128  1.0000
  H   H80       1.0  0.66917  0.17493  0.44067  1.0000
  H   H81       1.0  0.87403  0.31037  0.48060  1.0000
  N   N18       1.0  0.81251  0.24192  0.50891  1.0000
  H   H82       1.0  0.82972  0.25261  0.56089  1.0000
  H   H83       1.0  0.78978  0.21558  0.51513  1.0000
  C   C120      1.0  0.90129  0.35898  0.34418  1.0000
  H   H84       1.0  0.92669  0.36375  0.37041  1.0000
