data_image0
_chemical_formula_structural       C8HC7HCH4C4O3C3H2CH3CH2NHC3H2CH3CH2NHC3H2CH3CH2NHC3H2CH3CH2NHC3H2CH3CH2NHC3H2CH3CH2NHOC8HC7HCH4C4O4C8HC7HCH4C4O4C3NC2NCH2CH3NHC3NC2NCH2CH3NHC3NC2NCH2CH3NHC3NC2NCH2CH3NHC3NC2NCH2CH3NHC3NC2NCH2CH3NH
_chemical_formula_sum              "C132 H102 O12 N24"
_cell_length_a       29.88
_cell_length_b       29.88
_cell_length_c       15.1041
_cell_angle_alpha    89.9992
_cell_angle_beta     90.0008
_cell_angle_gamma    120

_space_group_name_H-M_alt    "P 1"
_space_group_IT_number       1

loop_
  _space_group_symop_operation_xyz
  'x, y, z'

loop_
  _atom_site_type_symbol
  _atom_site_label
  _atom_site_symmetry_multiplicity
  _atom_site_fract_x
  _atom_site_fract_y
  _atom_site_fract_z
  _atom_site_occupancy
  C   C1        1.0  0.02248  0.53028  0.34324  1.0000
  C   C2        1.0  0.97317  0.48427  0.34357  1.0000
  C   C3        1.0  0.96961  0.43547  0.33082  1.0000
  C   C4        1.0  0.01537  0.43326  0.32363  1.0000
  C   C5        1.0  0.06485  0.47729  0.33111  1.0000
  C   C6        1.0  0.06826  0.52644  0.34124  1.0000
  C   C7        1.0  0.92889  0.48930  0.35252  1.0000
  C   C8        1.0  0.11570  0.57255  0.35503  1.0000
  H   H1        1.0  0.01223  0.39782  0.31426  1.0000
  C   C9        1.0  0.02579  0.57990  0.34332  1.0000
  C   C10       1.0  0.98001  0.58373  0.34172  1.0000
  C   C11       1.0  0.98340  0.63289  0.33177  1.0000
  C   C12       1.0  0.03286  0.67692  0.32405  1.0000
  C   C13       1.0  0.07862  0.67470  0.33083  1.0000
  C   C14       1.0  0.07509  0.62590  0.34344  1.0000
  C   C15       1.0  0.93259  0.53764  0.35569  1.0000
  H   H2        1.0  0.03599  0.71237  0.31479  1.0000
  C   C16       1.0  0.11940  0.62089  0.35207  1.0000
  H   H3        1.0  0.89905  0.53757  0.36726  1.0000
  H   H4        1.0  0.89262  0.45799  0.35595  1.0000
  H   H5        1.0  0.15567  0.65221  0.35536  1.0000
  H   H6        1.0  0.14926  0.57262  0.36644  1.0000
  C   C17       1.0  0.10758  0.46897  0.32878  1.0000
  C   C18       1.0  0.92241  0.38945  0.31574  1.0000
  C   C19       1.0  0.94063  0.64115  0.32994  1.0000
  C   C20       1.0  0.12579  0.72072  0.31558  1.0000
  O   O1        1.0  0.10065  0.42147  0.34811  1.0000
  O   O2        1.0  0.92233  0.35551  0.25564  1.0000
  O   O3        1.0  0.12581  0.75451  0.25521  1.0000
  C   C21       1.0  0.20050  0.50851  0.32069  1.0000
  C   C22       1.0  0.28836  0.53126  0.27896  1.0000
  C   C23       1.0  0.24187  0.52995  0.25981  1.0000
  H   H7        1.0  0.23717  0.54117  0.19817  1.0000
  H   H8        1.0  0.31672  0.54503  0.23179  1.0000
  C   C24       1.0  0.28985  0.49771  0.03801  1.0000
  H   H9        1.0  0.21012  0.43769  0.04037  1.0000
  H   H10       1.0  0.28305  0.52953  0.05330  1.0000
  H   H11       1.0  0.29793  0.48391  0.09940  1.0000
  C   C25       1.0  0.14611  0.49118  0.02361  1.0000
  H   H12       1.0  0.17930  0.49916  0.06458  1.0000
  H   H13       1.0  0.11220  0.47683  0.06631  1.0000
  N   N1        1.0  0.15442  0.50332  0.29492  1.0000
  H   H14       1.0  0.15426  0.52434  0.24546  1.0000
  C   C26       1.0  0.57075  0.77804  0.32094  1.0000
  C   C27       1.0  0.54758  0.84288  0.27940  1.0000
  C   C28       1.0  0.54912  0.79783  0.26015  1.0000
  H   H15       1.0  0.53792  0.78191  0.19852  1.0000
  H   H16       1.0  0.53369  0.85738  0.23229  1.0000
  C   C29       1.0  0.58130  0.87801  0.03848  1.0000
  H   H17       1.0  0.64149  0.85854  0.04064  1.0000
  H   H18       1.0  0.54955  0.83934  0.05377  1.0000
  H   H19       1.0  0.59509  0.89987  0.09989  1.0000
  C   C30       1.0  0.58831  0.74106  0.02387  1.0000
  H   H20       1.0  0.58025  0.76619  0.06488  1.0000
  H   H21       1.0  0.60278  0.72158  0.06651  1.0000
  N   N2        1.0  0.57606  0.73723  0.29508  1.0000
  H   H22       1.0  0.55504  0.71604  0.24565  1.0000
  C   C31       1.0  0.30090  0.87913  0.32046  1.0000
  C   C32       1.0  0.23581  0.79125  0.27871  1.0000
  C   C33       1.0  0.28098  0.83775  0.25958  1.0000
  H   H23       1.0  0.29689  0.84251  0.19792  1.0000
  H   H24       1.0  0.22126  0.76290  0.23153  1.0000
  C   C34       1.0  0.20085  0.78956  0.03774  1.0000
  H   H25       1.0  0.22054  0.86928  0.04030  1.0000
  H   H26       1.0  0.23948  0.79637  0.05301  1.0000
  H   H27       1.0  0.17897  0.78143  0.09913  1.0000
  C   C35       1.0  0.33805  0.93342  0.02332  1.0000
  H   H28       1.0  0.31290  0.90018  0.06425  1.0000
  H   H29       1.0  0.35758  0.96731  0.06609  1.0000
  N   N3        1.0  0.34182  0.92521  0.29472  1.0000
  H   H30       1.0  0.36300  0.92533  0.24531  1.0000
  C   C36       1.0  0.84773  0.60174  0.32168  1.0000
  C   C37       1.0  0.75983  0.57889  0.27996  1.0000
  C   C38       1.0  0.80636  0.58032  0.26077  1.0000
  H   H31       1.0  0.81106  0.56900  0.19921  1.0000
  H   H32       1.0  0.73146  0.56509  0.23280  1.0000
  C   C39       1.0  0.75832  0.61253  0.03902  1.0000
  H   H33       1.0  0.83804  0.67259  0.04132  1.0000
  H   H34       1.0  0.76515  0.58073  0.05435  1.0000
  H   H35       1.0  0.75025  0.62635  0.10040  1.0000
  C   C40       1.0  0.90212  0.61916  0.02465  1.0000
  H   H36       1.0  0.86893  0.61117  0.06562  1.0000
  H   H37       1.0  0.93604  0.63356  0.06734  1.0000
  N   N4        1.0  0.89381  0.60693  0.29590  1.0000
  H   H38       1.0  0.89394  0.58590  0.24645  1.0000
  C   C41       1.0  0.47750  0.33221  0.32043  1.0000
  C   C42       1.0  0.50047  0.26726  0.27862  1.0000
  C   C43       1.0  0.49903  0.31238  0.25952  1.0000
  H   H39       1.0  0.51023  0.32834  0.19791  1.0000
  H   H40       1.0  0.51430  0.25275  0.23144  1.0000
  C   C44       1.0  0.46700  0.23212  0.03764  1.0000
  H   H41       1.0  0.40676  0.25153  0.04004  1.0000
  H   H42       1.0  0.49872  0.27079  0.05295  1.0000
  H   H43       1.0  0.45327  0.21023  0.09902  1.0000
  C   C45       1.0  0.45994  0.36903  0.02335  1.0000
  H   H44       1.0  0.46802  0.34388  0.06431  1.0000
  H   H45       1.0  0.44549  0.38849  0.06606  1.0000
  N   N5        1.0  0.47223  0.37306  0.29470  1.0000
  H   H46       1.0  0.49325  0.39428  0.24529  1.0000
  C   C46       1.0  0.74732  0.23102  0.32046  1.0000
  C   C47       1.0  0.81241  0.31892  0.27878  1.0000
  C   C48       1.0  0.76726  0.27240  0.25959  1.0000
  H   H47       1.0  0.75135  0.26770  0.19794  1.0000
  H   H48       1.0  0.82695  0.34729  0.23165  1.0000
  C   C49       1.0  0.84737  0.32051  0.03786  1.0000
  H   H49       1.0  0.82760  0.24076  0.04031  1.0000
  H   H50       1.0  0.80876  0.31374  0.05314  1.0000
  H   H51       1.0  0.86924  0.32859  0.09925  1.0000
  C   C50       1.0  0.71010  0.17667  0.02334  1.0000
  H   H52       1.0  0.73525  0.20989  0.06430  1.0000
  H   H53       1.0  0.69055  0.14277  0.06607  1.0000
  N   N6        1.0  0.70640  0.18495  0.29468  1.0000
  H   H54       1.0  0.68526  0.18484  0.24519  1.0000
  O   O4        1.0  0.94764  0.68871  0.34913  1.0000
  C   C51       1.0  0.54893  0.57825  0.34326  1.0000
  C   C52       1.0  0.59491  0.57492  0.34379  1.0000
  C   C53       1.0  0.64376  0.62017  0.33138  1.0000
  C   C54       1.0  0.64602  0.66816  0.32418  1.0000
  C   C55       1.0  0.60199  0.67364  0.33139  1.0000
  C   C56       1.0  0.55281  0.62789  0.34132  1.0000
  C   C57       1.0  0.58981  0.52556  0.35244  1.0000
  C   C58       1.0  0.50671  0.62926  0.35501  1.0000
  H   H55       1.0  0.68149  0.70047  0.31497  1.0000
  C   C59       1.0  0.49928  0.53197  0.34312  1.0000
  C   C60       1.0  0.49540  0.48234  0.34124  1.0000
  C   C61       1.0  0.44624  0.43660  0.33101  1.0000
  C   C62       1.0  0.40223  0.44208  0.32351  1.0000
  C   C63       1.0  0.40447  0.49006  0.33063  1.0000
  C   C64       1.0  0.45329  0.53531  0.34328  1.0000
  C   C65       1.0  0.54146  0.48095  0.35520  1.0000
  H   H56       1.0  0.36678  0.40977  0.31411  1.0000
  C   C66       1.0  0.45836  0.58465  0.35196  1.0000
  H   H57       1.0  0.54148  0.44743  0.36661  1.0000
  H   H58       1.0  0.62108  0.52054  0.35576  1.0000
  H   H59       1.0  0.42708  0.58967  0.35505  1.0000
  H   H60       1.0  0.50667  0.66276  0.36645  1.0000
  C   C67       1.0  0.61035  0.72470  0.32907  1.0000
  C   C68       1.0  0.68986  0.61909  0.31683  1.0000
  C   C69       1.0  0.43794  0.38557  0.32878  1.0000
  C   C70       1.0  0.35838  0.49114  0.31575  1.0000
  O   O5        1.0  0.65784  0.76526  0.34849  1.0000
  O   O6        1.0  0.72420  0.65305  0.25727  1.0000
  O   O7        1.0  0.39040  0.34496  0.34776  1.0000
  O   O8        1.0  0.32427  0.45736  0.25578  1.0000
  C   C71       1.0  0.50097  0.05685  0.34271  1.0000
  C   C72       1.0  0.50443  0.10622  0.34281  1.0000
  C   C73       1.0  0.45925  0.10991  0.33019  1.0000
  C   C74       1.0  0.41119  0.06423  0.32331  1.0000
  C   C75       1.0  0.40560  0.01470  0.33090  1.0000
  C   C76       1.0  0.45128  0.01116  0.34095  1.0000
  C   C77       1.0  0.55383  0.15044  0.35135  1.0000
  C   C78       1.0  0.44978  0.96366  0.35495  1.0000
  H   H61       1.0  0.37893  0.06746  0.31406  1.0000
  C   C79       1.0  0.54719  0.05336  0.34281  1.0000
  C   C80       1.0  0.59688  0.09905  0.34083  1.0000
  C   C81       1.0  0.64256  0.09548  0.33097  1.0000
  C   C82       1.0  0.63695  0.04593  0.32375  1.0000
  C   C83       1.0  0.58890  0.00026  0.33083  1.0000
  C   C84       1.0  0.54373  0.00398  0.34333  1.0000
  C   C85       1.0  0.59838  0.14658  0.35443  1.0000
  H   H62       1.0  0.66921  0.04268  0.31462  1.0000
  C   C86       1.0  0.49432  0.95980  0.35207  1.0000
  H   H63       1.0  0.63192  0.18009  0.36573  1.0000
  H   H64       1.0  0.55893  0.18676  0.35439  1.0000
  H   H65       1.0  0.48920  0.92347  0.35536  1.0000
  H   H66       1.0  0.41622  0.93017  0.36636  1.0000
  C   C87       1.0  0.35452  0.97202  0.32894  1.0000
  C   C88       1.0  0.46044  0.15714  0.31533  1.0000
  C   C89       1.0  0.69366  0.13812  0.32886  1.0000
  C   C90       1.0  0.58766  0.95298  0.31638  1.0000
  O   O9        1.0  0.31401  0.97912  0.34794  1.0000
  O   O10       1.0  0.42669  0.15743  0.25524  1.0000
  O   O11       1.0  0.73415  0.13103  0.34808  1.0000
  O   O12       1.0  0.62172  0.95264  0.25698  1.0000
  C   C91       1.0  0.21011  0.49596  0.40689  1.0000
  C   C92       1.0  0.25815  0.49991  0.42774  1.0000
  C   C93       1.0  0.29656  0.51457  0.36188  1.0000
  N   N7        1.0  0.26410  0.48514  0.50987  1.0000
  C   C94       1.0  0.22828  0.46913  0.57565  1.0000
  C   C95       1.0  0.18092  0.46746  0.55663  1.0000
  N   N8        1.0  0.17485  0.48085  0.47338  1.0000
  C   C96       1.0  0.24189  0.45299  0.65969  1.0000
  H   H67       1.0  0.24994  0.42187  0.64505  1.0000
  H   H68       1.0  0.32377  0.51199  0.66198  1.0000
  C   C97       1.0  0.13665  0.45055  0.61845  1.0000
  H   H69       1.0  0.12777  0.41401  0.64944  1.0000
  H   H70       1.0  0.10209  0.44321  0.58158  1.0000
  H   H71       1.0  0.15299  0.52719  0.65967  1.0000
  N   N9        1.0  0.34010  0.51189  0.37612  1.0000
  H   H72       1.0  0.35295  0.51545  0.43665  1.0000
  C   C98       1.0  0.58325  0.80018  0.40717  1.0000
  C   C99       1.0  0.57910  0.84415  0.42809  1.0000
  C   C100      1.0  0.56425  0.86778  0.36232  1.0000
  N   N10       1.0  0.59381  0.86485  0.51024  1.0000
  C   C101      1.0  0.60993  0.84514  0.57599  1.0000
  C   C102      1.0  0.61182  0.79957  0.55689  1.0000
  N   N11       1.0  0.59848  0.78012  0.47362  1.0000
  C   C103      1.0  0.62606  0.87491  0.66002  1.0000
  H   H73       1.0  0.65708  0.91411  0.64532  1.0000
  H   H74       1.0  0.56690  0.89757  0.66253  1.0000
  C   C104      1.0  0.62888  0.77231  0.61867  1.0000
  H   H75       1.0  0.66540  0.80006  0.64963  1.0000
  H   H76       1.0  0.63632  0.74518  0.58177  1.0000
  H   H77       1.0  0.55233  0.71185  0.65995  1.0000
  N   N12       1.0  0.56666  0.91387  0.37660  1.0000
  H   H78       1.0  0.56347  0.92341  0.43712  1.0000
  C   C105      1.0  0.27875  0.86948  0.40668  1.0000
  C   C106      1.0  0.23469  0.82141  0.42750  1.0000
  C   C107      1.0  0.21095  0.78299  0.36167  1.0000
  N   N13       1.0  0.21401  0.81542  0.50968  1.0000
  C   C108      1.0  0.23380  0.85121  0.57549  1.0000
  C   C109      1.0  0.27943  0.89862  0.55645  1.0000
  N   N14       1.0  0.29888  0.90473  0.47319  1.0000
  C   C110      1.0  0.20407  0.83754  0.65956  1.0000
  H   H79       1.0  0.16490  0.82949  0.64498  1.0000
  H   H80       1.0  0.18125  0.75567  0.66165  1.0000
  C   C111      1.0  0.30679  0.94287  0.61832  1.0000
  H   H81       1.0  0.27911  0.95168  0.64946  1.0000
  H   H82       1.0  0.33394  0.97746  0.58146  1.0000
  H   H83       1.0  0.36721  0.92663  0.65924  1.0000
  N   N15       1.0  0.16478  0.73941  0.37600  1.0000
  H   H84       1.0  0.15556  0.72653  0.43654  1.0000
  C   C112      1.0  0.83809  0.61428  0.40787  1.0000
  C   C113      1.0  0.79003  0.61027  0.42872  1.0000
  C   C114      1.0  0.75163  0.59558  0.36287  1.0000
  N   N16       1.0  0.78407  0.62505  0.51085  1.0000
  C   C115      1.0  0.81988  0.64108  0.57664  1.0000
  C   C116      1.0  0.86727  0.64279  0.55762  1.0000
  N   N17       1.0  0.87335  0.62941  0.47438  1.0000
  C   C117      1.0  0.80626  0.65724  0.66065  1.0000
  H   H85       1.0  0.79819  0.68834  0.64596  1.0000
  H   H86       1.0  0.72440  0.59820  0.66302  1.0000
  C   C118      1.0  0.91155  0.65976  0.61945  1.0000
  H   H87       1.0  0.92040  0.69631  0.65039  1.0000
  H   H88       1.0  0.94611  0.66711  0.58257  1.0000
  H   H89       1.0  0.89527  0.58315  0.66075  1.0000
  N   N18       1.0  0.70805  0.59818  0.37709  1.0000
  H   H90       1.0  0.69520  0.59484  0.43757  1.0000
  C   C119      1.0  0.46496  0.31000  0.40659  1.0000
  C   C120      1.0  0.46905  0.26598  0.42740  1.0000
  C   C121      1.0  0.48382  0.24234  0.36152  1.0000
  N   N19       1.0  0.45432  0.24523  0.50952  1.0000
  C   C122      1.0  0.43822  0.26493  0.57532  1.0000
  C   C123      1.0  0.43639  0.31054  0.55633  1.0000
  N   N20       1.0  0.44975  0.33004  0.47310  1.0000
  C   C124      1.0  0.42217  0.23517  0.65935  1.0000
  H   H91       1.0  0.39115  0.19596  0.64470  1.0000
  H   H92       1.0  0.48141  0.21261  0.66160  1.0000
  C   C125      1.0  0.41935  0.33779  0.61819  1.0000
  H   H93       1.0  0.38284  0.31003  0.64917  1.0000
  H   H94       1.0  0.41190  0.36494  0.58134  1.0000
  H   H95       1.0  0.49591  0.39824  0.65941  1.0000
  N   N21       1.0  0.48124  0.19616  0.37570  1.0000
  H   H96       1.0  0.48481  0.18685  0.43621  1.0000
  C   C126      1.0  0.76945  0.24066  0.40668  1.0000
  C   C127      1.0  0.81351  0.28872  0.42756  1.0000
  C   C128      1.0  0.83726  0.32716  0.36175  1.0000
  N   N22       1.0  0.83417  0.29469  0.50975  1.0000
  C   C129      1.0  0.81435  0.25889  0.57555  1.0000
  C   C130      1.0  0.76870  0.21150  0.55647  1.0000
  N   N23       1.0  0.74929  0.20540  0.47319  1.0000
  C   C131      1.0  0.84409  0.27252  0.65960  1.0000
  H   H97       1.0  0.88324  0.28053  0.64499  1.0000
  H   H98       1.0  0.86701  0.35441  0.66180  1.0000
  C   C132      1.0  0.74133  0.16723  0.61831  1.0000
  H   H99       1.0  0.76901  0.15839  0.64940  1.0000
  H   H100      1.0  0.71417  0.13265  0.58142  1.0000
  H   H101      1.0  0.68095  0.18348  0.65930  1.0000
  N   N24       1.0  0.88340  0.37078  0.37614  1.0000
  H   H102      1.0  0.89265  0.38355  0.43671  1.0000
