data_image0
_chemical_formula_structural       NC12H6N4C12H6N3C8HC7HCH4C4H4C6H6C6H6NC12H6N4C12H6N3C8HC7HCH4C4H4C6H6C6H6
_chemical_formula_sum              "N16 C112 H68"
_cell_length_a       25.8125
_cell_length_b       31.7493
_cell_length_c       15.0375
_cell_angle_alpha    90.0002
_cell_angle_beta     89.9998
_cell_angle_gamma    91.1847

_space_group_name_H-M_alt    "P 1"
_space_group_IT_number       1

loop_
  _space_group_symop_operation_xyz
  'x, y, z'

loop_
  _atom_site_type_symbol
  _atom_site_label
  _atom_site_symmetry_multiplicity
  _atom_site_fract_x
  _atom_site_fract_y
  _atom_site_fract_z
  _atom_site_occupancy
  N   N1        1.0  0.26863  0.24047  0.29904  1.0000
  C   C1        1.0  0.32219  0.24167  0.29566  1.0000
  C   C2        1.0  0.24307  0.27809  0.31063  1.0000
  C   C3        1.0  0.24364  0.20158  0.29205  1.0000
  C   C4        1.0  0.18841  0.35552  0.33311  1.0000
  C   C5        1.0  0.23818  0.35555  0.29488  1.0000
  C   C6        1.0  0.26476  0.31766  0.28367  1.0000
  C   C7        1.0  0.43204  0.24717  0.28613  1.0000
  C   C8        1.0  0.40271  0.23381  0.21181  1.0000
  C   C9        1.0  0.34835  0.23090  0.21657  1.0000
  C   C10       1.0  0.18719  0.12281  0.28988  1.0000
  C   C11       1.0  0.16606  0.15899  0.25141  1.0000
  C   C12       1.0  0.19414  0.19735  0.25135  1.0000
  H   H1        1.0  0.25453  0.38297  0.27110  1.0000
  H   H2        1.0  0.29957  0.31922  0.25129  1.0000
  H   H3        1.0  0.32777  0.22170  0.16150  1.0000
  H   H4        1.0  0.42071  0.22633  0.15339  1.0000
  H   H5        1.0  0.12930  0.15807  0.22577  1.0000
  H   H6        1.0  0.17734  0.22271  0.22202  1.0000
  N   N2        1.0  0.15488  0.08905  0.29907  1.0000
  N   N3        1.0  0.48290  0.25016  0.27656  1.0000
  N   N4        1.0  0.16354  0.39266  0.33526  1.0000
  N   N5        1.0  0.72883  0.26464  0.30312  1.0000
  C   C13       1.0  0.67545  0.26313  0.31054  1.0000
  C   C14       1.0  0.75486  0.22710  0.31193  1.0000
  C   C15       1.0  0.75330  0.30362  0.29304  1.0000
  C   C16       1.0  0.80961  0.14956  0.33171  1.0000
  C   C17       1.0  0.75906  0.14961  0.29657  1.0000
  C   C18       1.0  0.73236  0.18753  0.28692  1.0000
  C   C19       1.0  0.56583  0.25816  0.32508  1.0000
  C   C20       1.0  0.58962  0.27000  0.24380  1.0000
  C   C21       1.0  0.64391  0.27260  0.23674  1.0000
  C   C22       1.0  0.80982  0.38238  0.28658  1.0000
  C   C23       1.0  0.82999  0.34610  0.24697  1.0000
  C   C24       1.0  0.80177  0.30780  0.24871  1.0000
  H   H7        1.0  0.74191  0.12212  0.27483  1.0000
  H   H8        1.0  0.69663  0.18604  0.25762  1.0000
  H   H9        1.0  0.66044  0.28077  0.17719  1.0000
  H   H10       1.0  0.56761  0.27676  0.18927  1.0000
  H   H11       1.0  0.86625  0.34688  0.21927  1.0000
  H   H12       1.0  0.81794  0.28237  0.21862  1.0000
  N   N6        1.0  0.84256  0.41593  0.29493  1.0000
  N   N7        1.0  0.51509  0.25494  0.33585  1.0000
  N   N8        1.0  0.83410  0.11224  0.33403  1.0000
  C   C25       1.0  0.02599  0.99730  0.35010  1.0000
  C   C26       1.0  0.04178  0.45440  0.35411  1.0000
  C   C27       1.0  0.09549  0.44418  0.35332  1.0000
  C   C28       1.0  0.13214  0.47768  0.34652  1.0000
  C   C29       1.0  0.11854  0.02044  0.34189  1.0000
  C   C30       1.0  0.06480  0.03010  0.34797  1.0000
  C   C31       1.0  0.00221  0.42305  0.35879  1.0000
  C   C32       1.0  0.04785  0.07180  0.35843  1.0000
  H   H13       1.0  0.17073  0.47068  0.34455  1.0000
  C   C33       1.0  0.97175  0.00742  0.34947  1.0000
  C   C34       1.0  0.93297  0.47463  0.34568  1.0000
  C   C35       1.0  0.87926  0.48437  0.33907  1.0000
  C   C36       1.0  0.86566  0.02712  0.34411  1.0000
  C   C37       1.0  0.90228  0.06060  0.35166  1.0000
  C   C38       1.0  0.95595  0.05033  0.35384  1.0000
  C   C39       1.0  0.94986  0.43285  0.35500  1.0000
  H   H14       1.0  0.82710  0.03417  0.34134  1.0000
  C   C40       1.0  0.99550  0.08161  0.36089  1.0000
  H   H15       1.0  0.92459  0.40824  0.36400  1.0000
  H   H16       1.0  0.00999  0.39187  0.36453  1.0000
  H   H17       1.0  0.98775  0.11272  0.36793  1.0000
  H   H18       1.0  0.07308  0.09630  0.36908  1.0000
  C   C41       1.0  0.16044  0.04968  0.33076  1.0000
  C   C42       1.0  0.88339  0.10229  0.35501  1.0000
  C   C43       1.0  0.83732  0.45522  0.32728  1.0000
  C   C44       1.0  0.11443  0.40253  0.35754  1.0000
  H   H19       1.0  0.19759  0.03999  0.34065  1.0000
  H   H20       1.0  0.90802  0.12687  0.36746  1.0000
  H   H21       1.0  0.80025  0.46496  0.33782  1.0000
  H   H22       1.0  0.08996  0.37797  0.37129  1.0000
  C   C45       1.0  0.19445  0.27949  0.35486  1.0000
  C   C46       1.0  0.16713  0.31702  0.36446  1.0000
  C   C47       1.0  0.35161  0.25492  0.37026  1.0000
  C   C48       1.0  0.40596  0.25762  0.36563  1.0000
  C   C49       1.0  0.26601  0.16377  0.32340  1.0000
  C   C50       1.0  0.23827  0.12513  0.32320  1.0000
  H   H23       1.0  0.17839  0.25287  0.38251  1.0000
  H   H24       1.0  0.13203  0.31585  0.39579  1.0000
  H   H25       1.0  0.33343  0.26295  0.42810  1.0000
  H   H26       1.0  0.42627  0.26779  0.42024  1.0000
  H   H27       1.0  0.30139  0.16459  0.35400  1.0000
  H   H28       1.0  0.25438  0.09962  0.35306  1.0000
  C   C51       1.0  0.80459  0.22576  0.35223  1.0000
  C   C52       1.0  0.83185  0.18815  0.36068  1.0000
  C   C53       1.0  0.65160  0.25179  0.39197  1.0000
  C   C54       1.0  0.59732  0.24962  0.39926  1.0000
  C   C55       1.0  0.73165  0.34160  0.32508  1.0000
  C   C56       1.0  0.75938  0.38021  0.32267  1.0000
  H   H29       1.0  0.82134  0.25241  0.37858  1.0000
  H   H30       1.0  0.86756  0.18934  0.38989  1.0000
  H   H31       1.0  0.67378  0.24513  0.44637  1.0000
  H   H32       1.0  0.58098  0.24115  0.45885  1.0000
  H   H33       1.0  0.69698  0.34101  0.35795  1.0000
  H   H34       1.0  0.74393  0.40575  0.35344  1.0000
  N   N9        1.0  0.26863  0.74047  0.29904  1.0000
  C   C57       1.0  0.32219  0.74167  0.29566  1.0000
  C   C58       1.0  0.24307  0.77809  0.31063  1.0000
  C   C59       1.0  0.24364  0.70158  0.29205  1.0000
  C   C60       1.0  0.18841  0.85552  0.33311  1.0000
  C   C61       1.0  0.23818  0.85555  0.29488  1.0000
  C   C62       1.0  0.26476  0.81766  0.28367  1.0000
  C   C63       1.0  0.43203  0.74717  0.28613  1.0000
  C   C64       1.0  0.40271  0.73381  0.21181  1.0000
  C   C65       1.0  0.34835  0.73090  0.21657  1.0000
  C   C66       1.0  0.18719  0.62281  0.28988  1.0000
  C   C67       1.0  0.16606  0.65899  0.25141  1.0000
  C   C68       1.0  0.19414  0.69735  0.25135  1.0000
  H   H35       1.0  0.25453  0.88297  0.27110  1.0000
  H   H36       1.0  0.29957  0.81922  0.25129  1.0000
  H   H37       1.0  0.32777  0.72170  0.16150  1.0000
  H   H38       1.0  0.42071  0.72633  0.15339  1.0000
  H   H39       1.0  0.12930  0.65807  0.22577  1.0000
  H   H40       1.0  0.17734  0.72271  0.22202  1.0000
  N   N10       1.0  0.15488  0.58905  0.29907  1.0000
  N   N11       1.0  0.48289  0.75016  0.27656  1.0000
  N   N12       1.0  0.16354  0.89265  0.33526  1.0000
  N   N13       1.0  0.72883  0.76464  0.30312  1.0000
  C   C69       1.0  0.67545  0.76312  0.31054  1.0000
  C   C70       1.0  0.75486  0.72710  0.31193  1.0000
  C   C71       1.0  0.75330  0.80361  0.29304  1.0000
  C   C72       1.0  0.80961  0.64956  0.33171  1.0000
  C   C73       1.0  0.75906  0.64961  0.29657  1.0000
  C   C74       1.0  0.73236  0.68753  0.28692  1.0000
  C   C75       1.0  0.56583  0.75816  0.32508  1.0000
  C   C76       1.0  0.58962  0.76999  0.24380  1.0000
  C   C77       1.0  0.64391  0.77260  0.23674  1.0000
  C   C78       1.0  0.80982  0.88238  0.28658  1.0000
  C   C79       1.0  0.82999  0.84610  0.24697  1.0000
  C   C80       1.0  0.80177  0.80780  0.24871  1.0000
  H   H41       1.0  0.74191  0.62211  0.27483  1.0000
  H   H42       1.0  0.69662  0.68604  0.25762  1.0000
  H   H43       1.0  0.66043  0.78077  0.17719  1.0000
  H   H44       1.0  0.56761  0.77676  0.18927  1.0000
  H   H45       1.0  0.86625  0.84688  0.21927  1.0000
  H   H46       1.0  0.81794  0.78236  0.21862  1.0000
  N   N14       1.0  0.84256  0.91593  0.29493  1.0000
  N   N15       1.0  0.51509  0.75494  0.33585  1.0000
  N   N16       1.0  0.83410  0.61223  0.33403  1.0000
  C   C81       1.0  0.02599  0.49730  0.35010  1.0000
  C   C82       1.0  0.04178  0.95440  0.35411  1.0000
  C   C83       1.0  0.09549  0.94418  0.35332  1.0000
  C   C84       1.0  0.13214  0.97768  0.34652  1.0000
  C   C85       1.0  0.11854  0.52044  0.34189  1.0000
  C   C86       1.0  0.06480  0.53010  0.34797  1.0000
  C   C87       1.0  0.00221  0.92304  0.35879  1.0000
  C   C88       1.0  0.04786  0.57180  0.35843  1.0000
  H   H47       1.0  0.17073  0.97067  0.34455  1.0000
  C   C89       1.0  0.97175  0.50742  0.34947  1.0000
  C   C90       1.0  0.93296  0.97463  0.34568  1.0000
  C   C91       1.0  0.87926  0.98437  0.33907  1.0000
  C   C92       1.0  0.86566  0.52712  0.34411  1.0000
  C   C93       1.0  0.90227  0.56060  0.35166  1.0000
  C   C94       1.0  0.95595  0.55033  0.35384  1.0000
  C   C95       1.0  0.94986  0.93285  0.35500  1.0000
  H   H48       1.0  0.82710  0.53418  0.34134  1.0000
  C   C96       1.0  0.99550  0.58161  0.36089  1.0000
  H   H49       1.0  0.92459  0.90824  0.36400  1.0000
  H   H50       1.0  0.00999  0.89187  0.36453  1.0000
  H   H51       1.0  0.98775  0.61272  0.36793  1.0000
  H   H52       1.0  0.07308  0.59630  0.36908  1.0000
  C   C97       1.0  0.16044  0.54968  0.33076  1.0000
  C   C98       1.0  0.88339  0.60230  0.35501  1.0000
  C   C99       1.0  0.83733  0.95522  0.32728  1.0000
  C   C100      1.0  0.11443  0.90253  0.35754  1.0000
  H   H53       1.0  0.19759  0.53999  0.34065  1.0000
  H   H54       1.0  0.90802  0.62687  0.36746  1.0000
  H   H55       1.0  0.80025  0.96496  0.33782  1.0000
  H   H56       1.0  0.08996  0.87797  0.37129  1.0000
  C   C101      1.0  0.19445  0.77949  0.35486  1.0000
  C   C102      1.0  0.16713  0.81702  0.36446  1.0000
  C   C103      1.0  0.35161  0.75492  0.37026  1.0000
  C   C104      1.0  0.40596  0.75762  0.36563  1.0000
  C   C105      1.0  0.26601  0.66377  0.32340  1.0000
  C   C106      1.0  0.23827  0.62513  0.32320  1.0000
  H   H57       1.0  0.17839  0.75287  0.38251  1.0000
  H   H58       1.0  0.13203  0.81585  0.39579  1.0000
  H   H59       1.0  0.33343  0.76295  0.42810  1.0000
  H   H60       1.0  0.42627  0.76779  0.42024  1.0000
  H   H61       1.0  0.30139  0.66459  0.35400  1.0000
  H   H62       1.0  0.25438  0.59962  0.35306  1.0000
  C   C107      1.0  0.80459  0.72576  0.35223  1.0000
  C   C108      1.0  0.83185  0.68815  0.36068  1.0000
  C   C109      1.0  0.65160  0.75179  0.39197  1.0000
  C   C110      1.0  0.59732  0.74962  0.39926  1.0000
  C   C111      1.0  0.73164  0.84160  0.32508  1.0000
  C   C112      1.0  0.75938  0.88022  0.32267  1.0000
  H   H63       1.0  0.82134  0.75241  0.37858  1.0000
  H   H64       1.0  0.86756  0.68934  0.38989  1.0000
  H   H65       1.0  0.67378  0.74513  0.44637  1.0000
  H   H66       1.0  0.58098  0.74115  0.45885  1.0000
  H   H67       1.0  0.69698  0.84101  0.35795  1.0000
  H   H68       1.0  0.74393  0.90575  0.35344  1.0000
