data_image0
_chemical_formula_structural       C4H2C4H2C2H2C2H2C2H2C2H2C4H2C4H2C4H2C4H2C2H2C2H2C2H2C2H2C4H2C4H2C4H2C4H2C6H3C6H3C6H3C6H3C6H3C6H3C6H3C6H3C6H3C6H3C6H3C6H3C2H2C2H2C4H2C4H2C4H2C4H2C2H2C2H2C2H2C2H2C4H2C4H2C4H2C4H2C2H2C2H2C2H2C2H2
_chemical_formula_sum              "C180 H108"
_cell_length_a       34.2723
_cell_length_b       34.1147
_cell_length_c       14.8429
_cell_angle_alpha    90
_cell_angle_beta     90
_cell_angle_gamma    90.2685

_space_group_name_H-M_alt    "P 1"
_space_group_IT_number       1

loop_
  _space_group_symop_operation_xyz
  'x, y, z'

loop_
  _atom_site_type_symbol
  _atom_site_label
  _atom_site_symmetry_multiplicity
  _atom_site_fract_x
  _atom_site_fract_y
  _atom_site_fract_z
  _atom_site_occupancy
  C   C1        1.0  0.98853  0.51880  0.26169  1.0000
  C   C2        1.0  0.01773  0.48984  0.26170  1.0000
  C   C3        1.0  0.03265  0.47505  0.34364  1.0000
  C   C4        1.0  0.97359  0.53357  0.34363  1.0000
  H   H1        1.0  0.02798  0.47956  0.20141  1.0000
  H   H2        1.0  0.97823  0.52902  0.20140  1.0000
  C   C5        1.0  0.48810  0.98692  0.26167  1.0000
  C   C6        1.0  0.51729  0.01615  0.26167  1.0000
  C   C7        1.0  0.53219  0.03106  0.34364  1.0000
  C   C8        1.0  0.47321  0.97201  0.34363  1.0000
  H   H3        1.0  0.52758  0.02648  0.20139  1.0000
  H   H4        1.0  0.47776  0.97663  0.20138  1.0000
  C   C9        1.0  0.06500  0.31507  0.26213  1.0000
  C   C10       1.0  0.05663  0.27462  0.26224  1.0000
  H   H5        1.0  0.06840  0.32925  0.20182  1.0000
  H   H6        1.0  0.05390  0.26023  0.20202  1.0000
  C   C11       1.0  0.94051  0.69320  0.26211  1.0000
  C   C12       1.0  0.94915  0.73360  0.26222  1.0000
  H   H7        1.0  0.93710  0.67903  0.20179  1.0000
  H   H8        1.0  0.95200  0.74796  0.20199  1.0000
  C   C13       1.0  0.69140  0.06486  0.26214  1.0000
  C   C14       1.0  0.73162  0.05656  0.26225  1.0000
  H   H9        1.0  0.67731  0.06823  0.20182  1.0000
  H   H10       1.0  0.74593  0.05392  0.20202  1.0000
  C   C15       1.0  0.31402  0.94016  0.26212  1.0000
  C   C16       1.0  0.27410  0.94983  0.26223  1.0000
  H   H11       1.0  0.32801  0.93642  0.20180  1.0000
  H   H12       1.0  0.25988  0.95285  0.20200  1.0000
  C   C17       1.0  0.44832  0.77236  0.26143  1.0000
  C   C18       1.0  0.43921  0.81258  0.26150  1.0000
  C   C19       1.0  0.43455  0.83304  0.34354  1.0000
  C   C20       1.0  0.45292  0.75185  0.34341  1.0000
  H   H13       1.0  0.43577  0.82675  0.20125  1.0000
  H   H14       1.0  0.45133  0.75811  0.20114  1.0000
  C   C21       1.0  0.55716  0.23123  0.26149  1.0000
  C   C22       1.0  0.56570  0.19087  0.26155  1.0000
  C   C23       1.0  0.57004  0.17034  0.34357  1.0000
  C   C24       1.0  0.55294  0.25183  0.34346  1.0000
  H   H15       1.0  0.56905  0.17668  0.20129  1.0000
  H   H16       1.0  0.55435  0.24552  0.20119  1.0000
  C   C25       1.0  0.77417  0.55777  0.26149  1.0000
  C   C26       1.0  0.81441  0.56644  0.26155  1.0000
  C   C27       1.0  0.83491  0.57083  0.34356  1.0000
  C   C28       1.0  0.75362  0.55346  0.34343  1.0000
  H   H17       1.0  0.82856  0.56985  0.20129  1.0000
  H   H18       1.0  0.75995  0.55488  0.20118  1.0000
  C   C29       1.0  0.23207  0.44765  0.26147  1.0000
  C   C30       1.0  0.19162  0.44017  0.26153  1.0000
  C   C31       1.0  0.17102  0.43646  0.34357  1.0000
  C   C32       1.0  0.25272  0.45126  0.34345  1.0000
  H   H19       1.0  0.17738  0.43710  0.20128  1.0000
  H   H20       1.0  0.24638  0.45018  0.20117  1.0000
  C   C33       1.0  0.10948  0.09997  0.26256  1.0000
  C   C34       1.0  0.13299  0.06622  0.26257  1.0000
  H   H21       1.0  0.09927  0.11044  0.20240  1.0000
  H   H22       1.0  0.13906  0.05284  0.20245  1.0000
  C   C35       1.0  0.89702  0.90842  0.26254  1.0000
  C   C36       1.0  0.87376  0.94232  0.26257  1.0000
  H   H23       1.0  0.90724  0.89793  0.20240  1.0000
  H   H24       1.0  0.86766  0.95566  0.20243  1.0000
  C   C37       1.0  0.90571  0.11145  0.26238  1.0000
  C   C38       1.0  0.94030  0.13386  0.26238  1.0000
  H   H25       1.0  0.89498  0.10136  0.20227  1.0000
  H   H26       1.0  0.95376  0.13972  0.20225  1.0000
  C   C39       1.0  0.10012  0.89716  0.26249  1.0000
  C   C40       1.0  0.06581  0.87432  0.26244  1.0000
  H   H27       1.0  0.11082  0.90726  0.20235  1.0000
  H   H28       1.0  0.05235  0.86846  0.20231  1.0000
  C   C41       1.0  0.37339  0.56291  0.26123  1.0000
  C   C42       1.0  0.39632  0.59724  0.26124  1.0000
  C   C43       1.0  0.40835  0.61447  0.34328  1.0000
  C   C44       1.0  0.36206  0.54523  0.34329  1.0000
  H   H29       1.0  0.40648  0.60791  0.20113  1.0000
  H   H30       1.0  0.36743  0.54942  0.20111  1.0000
  C   C45       1.0  0.63325  0.44071  0.26124  1.0000
  C   C46       1.0  0.61016  0.40646  0.26126  1.0000
  C   C47       1.0  0.59804  0.38924  0.34327  1.0000
  C   C48       1.0  0.64474  0.45838  0.34321  1.0000
  H   H31       1.0  0.59996  0.39584  0.20114  1.0000
  H   H32       1.0  0.63924  0.45415  0.20109  1.0000
  C   C49       1.0  0.56508  0.63202  0.26149  1.0000
  C   C50       1.0  0.59945  0.60956  0.26149  1.0000
  C   C51       1.0  0.61681  0.59787  0.34350  1.0000
  C   C52       1.0  0.54742  0.64325  0.34348  1.0000
  H   H33       1.0  0.61007  0.59946  0.20137  1.0000
  H   H34       1.0  0.55164  0.63777  0.20134  1.0000
  C   C53       1.0  0.44114  0.37171  0.26140  1.0000
  C   C54       1.0  0.40665  0.39399  0.26135  1.0000
  C   C55       1.0  0.38924  0.40561  0.34334  1.0000
  C   C56       1.0  0.45883  0.36058  0.34343  1.0000
  H   H35       1.0  0.39600  0.40401  0.20120  1.0000
  H   H36       1.0  0.45459  0.36593  0.20128  1.0000
  C   C57       1.0  0.07970  0.37590  0.34395  1.0000
  C   C58       1.0  0.11951  0.38670  0.34384  1.0000
  C   C59       1.0  0.13085  0.42655  0.34363  1.0000
  C   C60       1.0  0.10178  0.45583  0.34353  1.0000
  C   C61       1.0  0.06173  0.44558  0.34366  1.0000
  C   C62       1.0  0.05098  0.40550  0.34387  1.0000
  H   H37       1.0  0.10985  0.48479  0.34340  1.0000
  H   H38       1.0  0.02204  0.39780  0.34396  1.0000
  H   H39       1.0  0.14047  0.36533  0.34391  1.0000
  C   C63       1.0  0.92576  0.63234  0.34392  1.0000
  C   C64       1.0  0.88601  0.62122  0.34383  1.0000
  C   C65       1.0  0.87499  0.58127  0.34361  1.0000
  C   C66       1.0  0.90432  0.55225  0.34351  1.0000
  C   C67       1.0  0.94429  0.56282  0.34363  1.0000
  C   C68       1.0  0.95471  0.60297  0.34384  1.0000
  H   H40       1.0  0.89650  0.52322  0.34338  1.0000
  H   H41       1.0  0.98360  0.61090  0.34392  1.0000
  H   H42       1.0  0.86489  0.64241  0.34390  1.0000
  C   C69       1.0  0.63085  0.07934  0.34394  1.0000
  C   C70       1.0  0.61998  0.11923  0.34384  1.0000
  C   C71       1.0  0.58028  0.13016  0.34363  1.0000
  C   C72       1.0  0.55123  0.10061  0.34353  1.0000
  C   C73       1.0  0.56152  0.06051  0.34366  1.0000
  C   C74       1.0  0.60143  0.05016  0.34386  1.0000
  H   H43       1.0  0.52236  0.10836  0.34341  1.0000
  H   H44       1.0  0.60914  0.02117  0.34394  1.0000
  H   H45       1.0  0.64119  0.14054  0.34390  1.0000
  C   C75       1.0  0.37425  0.92443  0.34393  1.0000
  C   C76       1.0  0.38480  0.88445  0.34382  1.0000
  C   C77       1.0  0.42444  0.87325  0.34361  1.0000
  C   C78       1.0  0.45370  0.90258  0.34351  1.0000
  C   C79       1.0  0.44370  0.94274  0.34364  1.0000
  C   C80       1.0  0.40388  0.95339  0.34385  1.0000
  H   H46       1.0  0.48251  0.89464  0.34338  1.0000
  H   H47       1.0  0.39640  0.98245  0.34394  1.0000
  H   H48       1.0  0.36344  0.86330  0.34388  1.0000
  C   C81       1.0  0.06716  0.14525  0.34451  1.0000
  C   C82       1.0  0.02798  0.13229  0.34450  1.0000
  C   C83       1.0  0.99690  0.15930  0.34445  1.0000
  C   C84       1.0  0.00528  0.19985  0.34441  1.0000
  C   C85       1.0  0.04436  0.21336  0.34443  1.0000
  C   C86       1.0  0.07517  0.18589  0.34449  1.0000
  H   H49       1.0  0.98282  0.21958  0.34436  1.0000
  H   H50       1.0  0.10355  0.19549  0.34449  1.0000
  H   H51       1.0  0.02200  0.10279  0.34452  1.0000
  C   C87       1.0  0.93912  0.86299  0.34453  1.0000
  C   C88       1.0  0.97832  0.87584  0.34454  1.0000
  C   C89       1.0  0.00932  0.84874  0.34448  1.0000
  C   C90       1.0  0.00083  0.80821  0.34439  1.0000
  C   C91       1.0  0.96171  0.79482  0.34440  1.0000
  C   C92       1.0  0.93099  0.82238  0.34447  1.0000
  H   H52       1.0  0.02324  0.78842  0.34434  1.0000
  H   H53       1.0  0.90258  0.81288  0.34445  1.0000
  H   H54       1.0  0.98438  0.90533  0.34458  1.0000
  C   C93       1.0  0.86027  0.06912  0.34447  1.0000
  C   C94       1.0  0.87355  0.03003  0.34452  1.0000
  C   C95       1.0  0.84703  0.99828  0.34453  1.0000
  C   C96       1.0  0.80656  0.00591  0.34448  1.0000
  C   C97       1.0  0.79270  0.04492  0.34442  1.0000
  C   C98       1.0  0.81975  0.07640  0.34441  1.0000
  H   H55       1.0  0.78717  0.98296  0.34448  1.0000
  H   H56       1.0  0.80995  0.10473  0.34434  1.0000
  H   H57       1.0  0.90298  0.02460  0.34455  1.0000
  C   C99       1.0  0.14558  0.93946  0.34448  1.0000
  C   C100      1.0  0.13267  0.97867  0.34454  1.0000
  C   C101      1.0  0.15951  0.01017  0.34451  1.0000
  C   C102      1.0  0.19990  0.00212  0.34444  1.0000
  C   C103      1.0  0.21336  0.96295  0.34439  1.0000
  C   C104      1.0  0.18600  0.93175  0.34441  1.0000
  H   H58       1.0  0.21954  0.02485  0.34443  1.0000
  H   H59       1.0  0.19550  0.90331  0.34437  1.0000
  H   H60       1.0  0.10329  0.98435  0.34460  1.0000
  C   C105      1.0  0.43845  0.64296  0.34332  1.0000
  C   C106      1.0  0.47759  0.63031  0.34336  1.0000
  C   C107      1.0  0.50872  0.65755  0.34339  1.0000
  C   C108      1.0  0.50035  0.69805  0.34340  1.0000
  C   C109      1.0  0.46126  0.71125  0.34336  1.0000
  C   C110      1.0  0.43045  0.68351  0.34332  1.0000
  H   H61       1.0  0.52282  0.71797  0.34345  1.0000
  H   H62       1.0  0.40206  0.69283  0.34330  1.0000
  H   H63       1.0  0.48352  0.60085  0.34336  1.0000
  C   C111      1.0  0.56787  0.36077  0.34333  1.0000
  C   C112      1.0  0.52873  0.37348  0.34334  1.0000
  C   C113      1.0  0.49754  0.34630  0.34339  1.0000
  C   C114      1.0  0.50581  0.30579  0.34344  1.0000
  C   C115      1.0  0.54485  0.29250  0.34340  1.0000
  C   C116      1.0  0.57574  0.32018  0.34336  1.0000
  H   H64       1.0  0.48329  0.28593  0.34348  1.0000
  H   H65       1.0  0.60410  0.31077  0.34334  1.0000
  H   H66       1.0  0.52285  0.40295  0.34332  1.0000
  C   C117      1.0  0.64518  0.56784  0.34341  1.0000
  C   C118      1.0  0.63239  0.52846  0.34334  1.0000
  C   C119      1.0  0.65931  0.49728  0.34329  1.0000
  C   C120      1.0  0.69967  0.50580  0.34328  1.0000
  C   C121      1.0  0.71308  0.54511  0.34338  1.0000
  C   C122      1.0  0.68562  0.57599  0.34346  1.0000
  H   H67       1.0  0.71935  0.48328  0.34324  1.0000
  H   H68       1.0  0.69508  0.60453  0.34353  1.0000
  H   H69       1.0  0.60303  0.52239  0.34333  1.0000
  C   C123      1.0  0.36103  0.43580  0.34337  1.0000
  C   C124      1.0  0.37410  0.47509  0.34332  1.0000
  C   C125      1.0  0.34739  0.50643  0.34333  1.0000
  C   C126      1.0  0.30699  0.49824  0.34336  1.0000
  C   C127      1.0  0.29333  0.45905  0.34340  1.0000
  C   C128      1.0  0.32052  0.42794  0.34341  1.0000
  H   H70       1.0  0.28749  0.52093  0.34336  1.0000
  H   H71       1.0  0.31084  0.39948  0.34343  1.0000
  H   H72       1.0  0.40349  0.48097  0.34329  1.0000
  C   C129      1.0  0.01772  0.48984  0.42556  1.0000
  C   C130      1.0  0.98853  0.51881  0.42556  1.0000
  H   H73       1.0  0.02797  0.47957  0.48586  1.0000
  H   H74       1.0  0.97823  0.52903  0.48585  1.0000
  C   C131      1.0  0.51729  0.01615  0.42560  1.0000
  C   C132      1.0  0.48809  0.98692  0.42560  1.0000
  H   H75       1.0  0.52758  0.02648  0.48588  1.0000
  H   H76       1.0  0.47775  0.97664  0.48588  1.0000
  C   C133      1.0  0.05667  0.27470  0.42630  1.0000
  C   C134      1.0  0.06503  0.31516  0.42617  1.0000
  C   C135      1.0  0.06915  0.33573  0.34409  1.0000
  C   C136      1.0  0.05249  0.25406  0.34433  1.0000
  H   H77       1.0  0.06847  0.32939  0.48639  1.0000
  H   H78       1.0  0.05397  0.26037  0.48661  1.0000
  C   C137      1.0  0.94909  0.73352  0.42626  1.0000
  C   C138      1.0  0.94045  0.69312  0.42614  1.0000
  C   C139      1.0  0.93614  0.67257  0.34406  1.0000
  C   C140      1.0  0.95342  0.75414  0.34430  1.0000
  H   H79       1.0  0.93701  0.67889  0.48636  1.0000
  H   H80       1.0  0.95191  0.74783  0.48657  1.0000
  C   C141      1.0  0.73154  0.05658  0.42625  1.0000
  C   C142      1.0  0.69131  0.06489  0.42613  1.0000
  C   C143      1.0  0.67085  0.06907  0.34407  1.0000
  C   C144      1.0  0.75209  0.05242  0.34431  1.0000
  H   H81       1.0  0.67717  0.06828  0.48636  1.0000
  H   H82       1.0  0.74579  0.05398  0.48657  1.0000
  C   C145      1.0  0.27418  0.94978  0.42624  1.0000
  C   C146      1.0  0.31410  0.94013  0.42612  1.0000
  C   C147      1.0  0.33439  0.93522  0.34406  1.0000
  C   C148      1.0  0.25383  0.95476  0.34429  1.0000
  H   H83       1.0  0.32815  0.93636  0.48635  1.0000
  H   H84       1.0  0.26001  0.95279  0.48655  1.0000
  C   C149      1.0  0.43910  0.81250  0.42551  1.0000
  C   C150      1.0  0.44821  0.77228  0.42546  1.0000
  H   H85       1.0  0.43557  0.82663  0.48580  1.0000
  H   H86       1.0  0.45114  0.75798  0.48570  1.0000
  C   C151      1.0  0.56580  0.19094  0.42554  1.0000
  C   C152      1.0  0.55726  0.23129  0.42549  1.0000
  H   H87       1.0  0.56922  0.17679  0.48584  1.0000
  H   H88       1.0  0.55451  0.24563  0.48574  1.0000
  C   C153      1.0  0.81433  0.56660  0.42550  1.0000
  C   C154      1.0  0.77409  0.55792  0.42544  1.0000
  H   H89       1.0  0.82843  0.57010  0.48580  1.0000
  H   H90       1.0  0.75981  0.55513  0.48570  1.0000
  C   C155      1.0  0.19168  0.44006  0.42554  1.0000
  C   C156      1.0  0.23213  0.44756  0.42549  1.0000
  H   H91       1.0  0.17749  0.43694  0.48584  1.0000
  H   H92       1.0  0.24648  0.45002  0.48574  1.0000
  C   C157      1.0  0.13303  0.06628  0.42658  1.0000
  C   C158      1.0  0.10959  0.10006  0.42657  1.0000
  C   C159      1.0  0.09731  0.11702  0.34455  1.0000
  C   C160      1.0  0.14473  0.04886  0.34460  1.0000
  H   H93       1.0  0.09933  0.11053  0.48670  1.0000
  H   H94       1.0  0.13912  0.05292  0.48670  1.0000
  C   C161      1.0  0.87374  0.94231  0.42658  1.0000
  C   C162      1.0  0.89701  0.90840  0.42660  1.0000
  C   C163      1.0  0.90912  0.89134  0.34458  1.0000
  C   C164      1.0  0.86207  0.95973  0.34458  1.0000
  H   H95       1.0  0.90721  0.89789  0.48673  1.0000
  H   H96       1.0  0.86763  0.95564  0.48672  1.0000
  C   C165      1.0  0.94031  0.13385  0.42646  1.0000
  C   C166      1.0  0.90572  0.11143  0.42646  1.0000
  C   C167      1.0  0.88832  0.09969  0.34441  1.0000
  C   C168      1.0  0.95812  0.14490  0.34441  1.0000
  H   H97       1.0  0.89505  0.10126  0.48656  1.0000
  H   H98       1.0  0.95381  0.13961  0.48659  1.0000
  C   C169      1.0  0.06573  0.87444  0.42651  1.0000
  C   C170      1.0  0.10011  0.89715  0.42654  1.0000
  C   C171      1.0  0.11740  0.90906  0.34452  1.0000
  C   C172      1.0  0.04806  0.86313  0.34447  1.0000
  H   H99       1.0  0.11076  0.90731  0.48668  1.0000
  H   H100      1.0  0.05228  0.86851  0.48663  1.0000
  C   C173      1.0  0.39641  0.59718  0.42532  1.0000
  C   C174      1.0  0.37340  0.56289  0.42536  1.0000
  H   H101      1.0  0.40650  0.60788  0.48547  1.0000
  H   H102      1.0  0.36745  0.54940  0.48547  1.0000
  C   C175      1.0  0.61013  0.40651  0.42525  1.0000
  C   C176      1.0  0.63320  0.44076  0.42522  1.0000
  H   H103      1.0  0.59989  0.39594  0.48540  1.0000
  H   H104      1.0  0.63917  0.45423  0.48536  1.0000
  C   C177      1.0  0.59947  0.60961  0.42548  1.0000
  C   C178      1.0  0.56510  0.63206  0.42547  1.0000
  H   H105      1.0  0.61017  0.59961  0.48562  1.0000
  H   H106      1.0  0.55171  0.63793  0.48561  1.0000
  C   C179      1.0  0.40662  0.39399  0.42536  1.0000
  C   C180      1.0  0.44104  0.37160  0.42542  1.0000
  H   H107      1.0  0.39590  0.40396  0.48550  1.0000
  H   H108      1.0  0.45449  0.36586  0.48556  1.0000
