data_image0
_chemical_formula_structural       C2H2C2HC4H2C6H4C2H2C4H2CNCNCNCNCNCNC5H3C3H2C2H2C4H2C4H2C2H2C3H2CHNCNC2HC3H3C2H3C4HCNCNCNCNHC4H2C2H2C2H2C4H2C3H2C4H2CHC6H3C6H4C6H4C6H4C2H2C4H2C4H2C2H2C2H2C4H2CNCNCNCNCNCNCNCNCNCNCNCNCNCNCNCNCNCNC6H4CHC6H4C3H2C4H2C2HC4H2C2H2C4H2C2H2C4H2C6H4C2H2C4H2C6H5C3H2CHCHC3H3CHC3HC4H2C6H4C4H2C2H2CNCNCNCNCNCNC3H2C3H2C4H2C2H2C4H2
_chemical_formula_sum              "C252 H144 N36"
_cell_length_a       59.7435
_cell_length_b       59.7434
_cell_length_c       14.8116
_cell_angle_alpha    90
_cell_angle_beta     90
_cell_angle_gamma    120

_space_group_name_H-M_alt    "P 1"
_space_group_IT_number       1

loop_
  _space_group_symop_operation_xyz
  'x, y, z'

loop_
  _atom_site_type_symbol
  _atom_site_label
  _atom_site_symmetry_multiplicity
  _atom_site_fract_x
  _atom_site_fract_y
  _atom_site_fract_z
  _atom_site_occupancy
  C   C1        1.0  0.20091  0.43935  0.31969  1.0000
  C   C2        1.0  0.17761  0.44006  0.32183  1.0000
  H   H1        1.0  0.20023  0.42278  0.29770  1.0000
  H   H2        1.0  0.16094  0.42394  0.30186  1.0000
  C   C3        1.0  0.24906  0.46122  0.33812  1.0000
  C   C4        1.0  0.25147  0.82705  0.32831  1.0000
  H   H3        1.0  0.23566  0.82776  0.30556  1.0000
  C   C5        1.0  0.22501  0.77892  0.34779  1.0000
  C   C6        1.0  0.17728  0.72970  0.34433  1.0000
  C   C7        1.0  0.20117  0.73195  0.31866  1.0000
  C   C8        1.0  0.22432  0.75590  0.31975  1.0000
  H   H4        1.0  0.20207  0.71607  0.29804  1.0000
  H   H5        1.0  0.24085  0.75626  0.29907  1.0000
  C   C9        1.0  0.13637  0.51567  0.34126  1.0000
  C   C10       1.0  0.11515  0.51814  0.31200  1.0000
  C   C11       1.0  0.11620  0.54216  0.31252  1.0000
  C   C12       1.0  0.13836  0.56482  0.34352  1.0000
  C   C13       1.0  0.15990  0.61260  0.32193  1.0000
  C   C14       1.0  0.15897  0.63574  0.32334  1.0000
  H   H6        1.0  0.17627  0.61319  0.29803  1.0000
  H   H7        1.0  0.17474  0.65234  0.30087  1.0000
  H   H8        1.0  0.09852  0.50240  0.28946  1.0000
  H   H9        1.0  0.10036  0.54284  0.28987  1.0000
  C   C15       1.0  0.04334  0.39514  0.26035  1.0000
  C   C16       1.0  0.07043  0.41118  0.26491  1.0000
  H   H10       1.0  0.03520  0.38703  0.19949  1.0000
  H   H11       1.0  0.08105  0.41482  0.20692  1.0000
  C   C17       1.0  0.02746  0.65152  0.35506  1.0000
  C   C18       1.0  0.08258  0.67380  0.34627  1.0000
  C   C19       1.0  0.06697  0.66268  0.26910  1.0000
  C   C20       1.0  0.03995  0.65211  0.27307  1.0000
  H   H12       1.0  0.07502  0.66101  0.21024  1.0000
  H   H13       1.0  0.02928  0.64307  0.21679  1.0000
  C   C21       1.0  0.10816  0.44511  0.34461  1.0000
  N   N1        1.0  0.12980  0.44290  0.34457  1.0000
  C   C22       1.0  0.15401  0.46427  0.34564  1.0000
  N   N2        1.0  0.15563  0.48789  0.34515  1.0000
  C   C23       1.0  0.13455  0.49094  0.34343  1.0000
  N   N3        1.0  0.11106  0.46909  0.34382  1.0000
  C   C24       1.0  0.10820  0.67834  0.34729  1.0000
  N   N4        1.0  0.12986  0.70218  0.34695  1.0000
  C   C25       1.0  0.15405  0.70498  0.34578  1.0000
  N   N5        1.0  0.15563  0.68296  0.34648  1.0000
  C   C26       1.0  0.13453  0.65885  0.34852  1.0000
  N   N6        1.0  0.11106  0.65723  0.34829  1.0000
  C   C27       1.0  0.17722  0.46274  0.34694  1.0000
  C   C28       1.0  0.20114  0.48437  0.37247  1.0000
  C   C29       1.0  0.22427  0.48355  0.37129  1.0000
  C   C30       1.0  0.22492  0.46119  0.34332  1.0000
  C   C31       1.0  0.25140  0.43953  0.36268  1.0000
  H   H14       1.0  0.23563  0.42303  0.38571  1.0000
  H   H15       1.0  0.20208  0.50118  0.39302  1.0000
  H   H16       1.0  0.24082  0.49971  0.39183  1.0000
  C   C32       1.0  0.24916  0.80302  0.35276  1.0000
  C   C33       1.0  0.20102  0.77678  0.37161  1.0000
  C   C34       1.0  0.17771  0.75279  0.36955  1.0000
  H   H17       1.0  0.20037  0.79268  0.39366  1.0000
  H   H18       1.0  0.16106  0.75226  0.38962  1.0000
  C   C35       1.0  0.15990  0.56254  0.37036  1.0000
  C   C36       1.0  0.15897  0.53847  0.36884  1.0000
  H   H19       1.0  0.17625  0.57831  0.39434  1.0000
  H   H20       1.0  0.17474  0.53764  0.39135  1.0000
  C   C37       1.0  0.13836  0.58879  0.34872  1.0000
  C   C38       1.0  0.13636  0.63594  0.35080  1.0000
  C   C39       1.0  0.11513  0.61225  0.38002  1.0000
  C   C40       1.0  0.11618  0.58928  0.37959  1.0000
  H   H21       1.0  0.09849  0.61135  0.40245  1.0000
  H   H22       1.0  0.10033  0.57276  0.40220  1.0000
  C   C41       1.0  0.08251  0.42408  0.34583  1.0000
  C   C42       1.0  0.06674  0.42008  0.42220  1.0000
  C   C43       1.0  0.03974  0.40362  0.41805  1.0000
  C   C44       1.0  0.02739  0.39126  0.33644  1.0000
  H   H23       1.0  0.07469  0.43019  0.48053  1.0000
  H   H24       1.0  0.02897  0.40242  0.47355  1.0000
  C   C45       1.0  0.04329  0.66296  0.43194  1.0000
  C   C46       1.0  0.07038  0.67394  0.42774  1.0000
  H   H25       1.0  0.03505  0.66246  0.49308  1.0000
  H   H26       1.0  0.08089  0.68045  0.48612  1.0000
  C   C47       1.0  0.29836  0.46287  0.33288  1.0000
  C   C48       1.0  0.29588  0.48434  0.30652  1.0000
  C   C49       1.0  0.27191  0.48347  0.30851  1.0000
  H   H27       1.0  0.31160  0.50105  0.28450  1.0000
  H   H28       1.0  0.27138  0.49949  0.28710  1.0000
  C   C50       1.0  0.27550  0.85032  0.33091  1.0000
  H   H29       1.0  0.27616  0.86701  0.31047  1.0000
  N   N7        1.0  0.32627  0.89814  0.35651  1.0000
  C   C51       1.0  0.32323  0.87384  0.35690  1.0000
  N   N8        1.0  0.32621  0.44322  0.33352  1.0000
  C   C52       1.0  0.32314  0.46447  0.33255  1.0000
  C   C53       1.0  0.27544  0.44029  0.35976  1.0000
  H   H30       1.0  0.27613  0.42428  0.38019  1.0000
  C   C54       1.0  0.29846  0.85067  0.35728  1.0000
  C   C55       1.0  0.29602  0.82673  0.38355  1.0000
  C   C56       1.0  0.27205  0.80363  0.38192  1.0000
  H   H31       1.0  0.31179  0.82576  0.40516  1.0000
  H   H32       1.0  0.27156  0.78709  0.40321  1.0000
  H   H33       1.0  0.37469  0.53796  0.28385  1.0000
  C   C57       1.0  0.36143  0.98397  0.27987  1.0000
  C   C58       1.0  0.35067  0.95690  0.28523  1.0000
  H   H34       1.0  0.35878  0.99166  0.22182  1.0000
  H   H35       1.0  0.34122  0.94583  0.23011  1.0000
  H   H36       1.0  0.38123  0.35912  0.22155  1.0000
  C   C59       1.0  0.37655  0.39118  0.33982  1.0000
  C   C60       1.0  0.35522  0.42484  0.32799  1.0000
  C   C61       1.0  0.37066  0.42366  0.25776  1.0000
  C   C62       1.0  0.38080  0.40689  0.26292  1.0000
  H   H37       1.0  0.37568  0.43596  0.20371  1.0000
  C   C63       1.0  0.35021  0.91969  0.35861  1.0000
  N   N9        1.0  0.34512  0.87201  0.35747  1.0000
  C   C64       1.0  0.36931  0.89296  0.35749  1.0000
  N   N10       1.0  0.37114  0.91651  0.35884  1.0000
  C   C65       1.0  0.35016  0.44563  0.33024  1.0000
  N   N11       1.0  0.34501  0.48818  0.33028  1.0000
  C   C66       1.0  0.36921  0.49147  0.32907  1.0000
  N   N12       1.0  0.37104  0.46975  0.32829  1.0000
  H   H38       1.0  0.37544  0.85261  0.40645  1.0000
  C   C67       1.0  0.35519  0.94549  0.36144  1.0000
  C   C68       1.0  0.37004  0.96188  0.43304  1.0000
  C   C69       1.0  0.38018  0.98880  0.42859  1.0000
  C   C70       1.0  0.37659  0.00050  0.35103  1.0000
  H   H39       1.0  0.38038  0.03696  0.46902  1.0000
  H   H40       1.0  0.37463  0.95442  0.48766  1.0000
  C   C71       1.0  0.36079  0.39217  0.40952  1.0000
  C   C72       1.0  0.35005  0.40849  0.40342  1.0000
  H   H41       1.0  0.35766  0.38153  0.46711  1.0000
  H   H42       1.0  0.34012  0.40981  0.45759  1.0000
  C   C73       1.0  0.54516  0.75666  0.31788  1.0000
  C   C74       1.0  0.54410  0.73263  0.31369  1.0000
  H   H43       1.0  0.52921  0.75745  0.29724  1.0000
  H   H44       1.0  0.52733  0.71715  0.29075  1.0000
  C   C75       1.0  0.56768  0.80338  0.35537  1.0000
  C   C76       1.0  0.56594  0.85095  0.36017  1.0000
  C   C77       1.0  0.58846  0.85059  0.33251  1.0000
  C   C78       1.0  0.58929  0.82735  0.32999  1.0000
  H   H45       1.0  0.60435  0.86722  0.31089  1.0000
  H   H46       1.0  0.60568  0.82800  0.30605  1.0000
  C   C79       1.0  0.72891  0.56631  0.35654  1.0000
  C   C80       1.0  0.43846  0.25212  0.32604  1.0000
  C   C81       1.0  0.43925  0.27616  0.32953  1.0000
  H   H47       1.0  0.42196  0.23638  0.30287  1.0000
  H   H48       1.0  0.42324  0.27690  0.30934  1.0000
  C   C82       1.0  0.46015  0.22561  0.34396  1.0000
  C   C83       1.0  0.46185  0.17799  0.33808  1.0000
  C   C84       1.0  0.48339  0.20201  0.31279  1.0000
  C   C85       1.0  0.48250  0.22510  0.31508  1.0000
  H   H49       1.0  0.50019  0.20306  0.29150  1.0000
  H   H50       1.0  0.49861  0.24171  0.29462  1.0000
  C   C86       1.0  0.73170  0.20172  0.30631  1.0000
  H   H51       1.0  0.71597  0.20273  0.28453  1.0000
  C   C87       1.0  0.51172  0.63663  0.31161  1.0000
  C   C88       1.0  0.50895  0.61331  0.27687  1.0000
  C   C89       1.0  0.48491  0.59039  0.27706  1.0000
  C   C90       1.0  0.46259  0.58961  0.31318  1.0000
  C   C91       1.0  0.41463  0.56310  0.29854  1.0000
  C   C92       1.0  0.39165  0.53894  0.30265  1.0000
  H   H52       1.0  0.41361  0.57880  0.27638  1.0000
  H   H53       1.0  0.52454  0.61262  0.25156  1.0000
  H   H54       1.0  0.48400  0.57404  0.25138  1.0000
  C   C93       1.0  0.39211  0.89098  0.35616  1.0000
  C   C94       1.0  0.41589  0.91213  0.32719  1.0000
  C   C95       1.0  0.43878  0.91096  0.32839  1.0000
  C   C96       1.0  0.43911  0.88875  0.35992  1.0000
  C   C97       1.0  0.46521  0.86709  0.33831  1.0000
  C   C98       1.0  0.48930  0.86807  0.33864  1.0000
  H   H55       1.0  0.44940  0.85073  0.31454  1.0000
  H   H56       1.0  0.49015  0.85237  0.31540  1.0000
  H   H57       1.0  0.41689  0.92878  0.30427  1.0000
  H   H58       1.0  0.45537  0.92674  0.30577  1.0000
  C   C99       1.0  0.51529  0.39274  0.36301  1.0000
  C   C100      1.0  0.51798  0.41691  0.33906  1.0000
  C   C101      1.0  0.54205  0.43975  0.34272  1.0000
  C   C102      1.0  0.56456  0.43959  0.37161  1.0000
  C   C103      1.0  0.61217  0.46588  0.34779  1.0000
  C   C104      1.0  0.63528  0.48997  0.34931  1.0000
  H   H59       1.0  0.61252  0.45040  0.31977  1.0000
  H   H60       1.0  0.65162  0.49110  0.32254  1.0000
  H   H61       1.0  0.50236  0.41826  0.31809  1.0000
  H   H62       1.0  0.54291  0.45664  0.32374  1.0000
  C   C105      1.0  0.63553  0.13791  0.32938  1.0000
  C   C106      1.0  0.61191  0.11668  0.29970  1.0000
  C   C107      1.0  0.58900  0.11783  0.29887  1.0000
  C   C108      1.0  0.58850  0.14005  0.32917  1.0000
  C   C109      1.0  0.56210  0.16145  0.30805  1.0000
  C   C110      1.0  0.53798  0.16042  0.31024  1.0000
  H   H63       1.0  0.57777  0.17780  0.28361  1.0000
  H   H64       1.0  0.53701  0.17612  0.28785  1.0000
  H   H65       1.0  0.61104  0.09997  0.27819  1.0000
  H   H66       1.0  0.57249  0.10194  0.27636  1.0000
  C   C111      1.0  0.62126  0.64682  0.26340  1.0000
  C   C112      1.0  0.60444  0.65685  0.25641  1.0000
  H   H67       1.0  0.62064  0.63455  0.21390  1.0000
  H   H68       1.0  0.59234  0.65169  0.20175  1.0000
  C   C113      1.0  0.65055  0.63766  0.35331  1.0000
  C   C114      1.0  0.67158  0.60383  0.36874  1.0000
  C   C115      1.0  0.67721  0.62015  0.29296  1.0000
  C   C116      1.0  0.66658  0.63654  0.28498  1.0000
  H   H69       1.0  0.68746  0.61883  0.23985  1.0000
  H   H70       1.0  0.66999  0.64711  0.22706  1.0000
  C   C117      1.0  0.39040  0.02811  0.34171  1.0000
  C   C118      1.0  0.42394  0.08314  0.33174  1.0000
  C   C119      1.0  0.42300  0.06674  0.26112  1.0000
  C   C120      1.0  0.40628  0.03980  0.26536  1.0000
  H   H71       1.0  0.43544  0.07419  0.20751  1.0000
  H   H72       1.0  0.40729  0.02864  0.21484  1.0000
  C   C121      1.0  0.39159  0.36194  0.27967  1.0000
  C   C122      1.0  0.40786  0.35114  0.28585  1.0000
  H   H73       1.0  0.40942  0.34150  0.23124  1.0000
  H   H74       1.0  0.39296  0.40773  0.21264  1.0000
  C   C123      1.0  0.66575  0.04405  0.27796  1.0000
  C   C124      1.0  0.67661  0.07115  0.28020  1.0000
  H   H75       1.0  0.66850  0.03582  0.22152  1.0000
  H   H76       1.0  0.68630  0.08174  0.22454  1.0000
  C   C125      1.0  0.63655  0.00055  0.34364  1.0000
  C   C126      1.0  0.60323  0.94548  0.33956  1.0000
  C   C127      1.0  0.60377  0.96116  0.26710  1.0000
  C   C128      1.0  0.62042  0.98814  0.26843  1.0000
  H   H77       1.0  0.59115  0.95315  0.21422  1.0000
  H   H78       1.0  0.61927  0.99883  0.21650  1.0000
  C   C129      1.0  0.58234  0.67777  0.32565  1.0000
  N   N13       1.0  0.58485  0.70167  0.33532  1.0000
  C   C130      1.0  0.56375  0.70498  0.33445  1.0000
  N   N14       1.0  0.54003  0.68333  0.32633  1.0000
  C   C131      1.0  0.53660  0.65919  0.31757  1.0000
  N   N15       1.0  0.55820  0.65715  0.31703  1.0000
  C   C132      1.0  0.44465  0.35086  0.36000  1.0000
  N   N16       1.0  0.44225  0.32692  0.35633  1.0000
  C   C133      1.0  0.46349  0.32385  0.35737  1.0000
  N   N17       1.0  0.48720  0.34572  0.36016  1.0000
  C   C134      1.0  0.49048  0.36992  0.36179  1.0000
  N   N18       1.0  0.46876  0.37174  0.36246  1.0000
  C   C135      1.0  0.67706  0.10904  0.34723  1.0000
  N   N19       1.0  0.70106  0.13046  0.34309  1.0000
  C   C136      1.0  0.70427  0.15475  0.33581  1.0000
  N   N20       1.0  0.68246  0.15668  0.33204  1.0000
  C   C137      1.0  0.65822  0.13583  0.33445  1.0000
  N   N21       1.0  0.65621  0.11228  0.34246  1.0000
  C   C138      1.0  0.44471  0.10899  0.33510  1.0000
  N   N22       1.0  0.44226  0.13051  0.33775  1.0000
  C   C139      1.0  0.46349  0.15484  0.33793  1.0000
  N   N23       1.0  0.48723  0.15672  0.33744  1.0000
  C   C140      1.0  0.49052  0.13580  0.33698  1.0000
  N   N24       1.0  0.46884  0.11224  0.33503  1.0000
  C   C141      1.0  0.67683  0.58313  0.36847  1.0000
  N   N25       1.0  0.70075  0.58565  0.35943  1.0000
  C   C142      1.0  0.70407  0.56455  0.36027  1.0000
  N   N26       1.0  0.68239  0.54082  0.36779  1.0000
  C   C143      1.0  0.65824  0.53738  0.37596  1.0000
  N   N27       1.0  0.65619  0.55897  0.37652  1.0000
  C   C144      1.0  0.58255  0.91970  0.34651  1.0000
  N   N28       1.0  0.58517  0.89829  0.35059  1.0000
  C   C145      1.0  0.56410  0.87400  0.35803  1.0000
  N   N29       1.0  0.54035  0.87204  0.36201  1.0000
  C   C146      1.0  0.53694  0.89288  0.35969  1.0000
  N   N30       1.0  0.55846  0.91643  0.35153  1.0000
  C   C147      1.0  0.56545  0.72979  0.33883  1.0000
  C   C148      1.0  0.58813  0.75247  0.36685  1.0000
  C   C149      1.0  0.58911  0.77660  0.37174  1.0000
  C   C150      1.0  0.56752  0.77923  0.34842  1.0000
  C   C151      1.0  0.54553  0.80399  0.38610  1.0000
  C   C152      1.0  0.54463  0.82707  0.38796  1.0000
  H   H79       1.0  0.52955  0.78743  0.40771  1.0000
  H   H80       1.0  0.52792  0.82608  0.41012  1.0000
  H   H81       1.0  0.60411  0.75155  0.38602  1.0000
  H   H82       1.0  0.60569  0.79221  0.39511  1.0000
  C   C153      1.0  0.73173  0.54493  0.38143  1.0000
  H   H83       1.0  0.71620  0.52809  0.40369  1.0000
  C   C154      1.0  0.46186  0.29905  0.35656  1.0000
  C   C155      1.0  0.48332  0.29651  0.38254  1.0000
  C   C156      1.0  0.48242  0.27253  0.37997  1.0000
  C   C157      1.0  0.46015  0.24973  0.35014  1.0000
  C   C158      1.0  0.43837  0.20151  0.36727  1.0000
  C   C159      1.0  0.43915  0.17825  0.36403  1.0000
  H   H84       1.0  0.42180  0.20073  0.38977  1.0000
  H   H85       1.0  0.42308  0.16149  0.38373  1.0000
  H   H86       1.0  0.50005  0.31220  0.40461  1.0000
  H   H87       1.0  0.49845  0.27196  0.40103  1.0000
  C   C160      1.0  0.72915  0.17781  0.33365  1.0000
  C   C161      1.0  0.46509  0.61313  0.34477  1.0000
  C   C162      1.0  0.48918  0.63623  0.34369  1.0000
  H   H88       1.0  0.44958  0.61344  0.37275  1.0000
  H   H89       1.0  0.49029  0.65253  0.37063  1.0000
  C   C163      1.0  0.43884  0.56555  0.32033  1.0000
  C   C164      1.0  0.39201  0.51628  0.32827  1.0000
  C   C165      1.0  0.41615  0.51896  0.35259  1.0000
  C   C166      1.0  0.43899  0.54305  0.34922  1.0000
  H   H90       1.0  0.41749  0.50334  0.37354  1.0000
  H   H91       1.0  0.45587  0.54390  0.36839  1.0000
  C   C167      1.0  0.41521  0.86728  0.38645  1.0000
  C   C168      1.0  0.39213  0.86833  0.38418  1.0000
  H   H92       1.0  0.41450  0.85090  0.41064  1.0000
  C   C169      1.0  0.46300  0.88865  0.36540  1.0000
  C   C170      1.0  0.51216  0.89077  0.36498  1.0000
  C   C171      1.0  0.50977  0.91197  0.39502  1.0000
  C   C172      1.0  0.48572  0.91083  0.39595  1.0000
  H   H93       1.0  0.52561  0.92866  0.41665  1.0000
  H   H94       1.0  0.48509  0.92670  0.41866  1.0000
  C   C173      1.0  0.56210  0.41536  0.39314  1.0000
  C   C174      1.0  0.53794  0.39237  0.38861  1.0000
  H   H95       1.0  0.57779  0.41432  0.41519  1.0000
  H   H96       1.0  0.53696  0.37539  0.40718  1.0000
  C   C175      1.0  0.58862  0.46335  0.37906  1.0000
  C   C176      1.0  0.63566  0.51248  0.38141  1.0000
  C   C177      1.0  0.61229  0.50969  0.41581  1.0000
  C   C178      1.0  0.58936  0.48565  0.41523  1.0000
  H   H97       1.0  0.61156  0.52526  0.44117  1.0000
  H   H98       1.0  0.57298  0.48473  0.44072  1.0000
  C   C179      1.0  0.61229  0.16163  0.35596  1.0000
  C   C180      1.0  0.63540  0.16064  0.35558  1.0000
  H   H99       1.0  0.61286  0.17801  0.37952  1.0000
  H   H100      1.0  0.65197  0.17637  0.37847  1.0000
  C   C181      1.0  0.56451  0.13997  0.33467  1.0000
  C   C182      1.0  0.51531  0.13779  0.33844  1.0000
  C   C183      1.0  0.51793  0.11665  0.36759  1.0000
  C   C184      1.0  0.54198  0.11780  0.36639  1.0000
  H   H101      1.0  0.50228  0.10002  0.39063  1.0000
  H   H102      1.0  0.54278  0.10202  0.38911  1.0000
  C   C185      1.0  0.60302  0.67249  0.32542  1.0000
  C   C186      1.0  0.61930  0.67807  0.40133  1.0000
  C   C187      1.0  0.63565  0.66741  0.40936  1.0000
  C   C188      1.0  0.63680  0.65140  0.34097  1.0000
  C   C189      1.0  0.64590  0.62206  0.43075  1.0000
  C   C190      1.0  0.65587  0.60518  0.43760  1.0000
  H   H103      1.0  0.63352  0.62134  0.48001  1.0000
  H   H104      1.0  0.65063  0.59302  0.49209  1.0000
  H   H105      1.0  0.61791  0.68825  0.45455  1.0000
  H   H106      1.0  0.64616  0.67076  0.46740  1.0000
  C   C191      1.0  0.39116  0.04464  0.41181  1.0000
  C   C192      1.0  0.40743  0.07173  0.40664  1.0000
  H   H107      1.0  0.40859  0.08282  0.46110  1.0000
  H   H108      1.0  0.39194  0.99998  0.47993  1.0000
  C   C193      1.0  0.42384  0.35590  0.36208  1.0000
  C   C194      1.0  0.42236  0.37100  0.43291  1.0000
  C   C195      1.0  0.40561  0.38116  0.42769  1.0000
  C   C196      1.0  0.39029  0.37735  0.35003  1.0000
  H   H109      1.0  0.43441  0.37574  0.48757  1.0000
  H   H110      1.0  0.40623  0.39310  0.47847  1.0000
  C   C197      1.0  0.67199  0.08326  0.35407  1.0000
  C   C198      1.0  0.65683  0.06755  0.42645  1.0000
  C   C199      1.0  0.64657  0.04058  0.42515  1.0000
  C   C200      1.0  0.65035  0.02820  0.34998  1.0000
  C   C201      1.0  0.63611  0.98473  0.41574  1.0000
  C   C202      1.0  0.61991  0.95762  0.41352  1.0000
  H   H111      1.0  0.64703  0.99298  0.47228  1.0000
  H   H112      1.0  0.61899  0.94706  0.46930  1.0000
  H   H113      1.0  0.65213  0.07552  0.47922  1.0000
  H   H114      1.0  0.63466  0.02987  0.47693  1.0000
  H   H115      1.0  0.78680  0.53075  0.28811  1.0000
  C   C203      1.0  0.77843  0.56849  0.34838  1.0000
  C   C204      1.0  0.75166  0.58907  0.32950  1.0000
  C   C205      1.0  0.77582  0.59012  0.32530  1.0000
  H   H116      1.0  0.75076  0.60508  0.31061  1.0000
  H   H117      1.0  0.79150  0.60677  0.30271  1.0000
  C   C206      1.0  0.75570  0.22479  0.30805  1.0000
  H   H118      1.0  0.75628  0.24136  0.28666  1.0000
  C   C207      1.0  0.75579  0.54604  0.37793  1.0000
  H   H119      1.0  0.75655  0.53006  0.39835  1.0000
  C   C208      1.0  0.75206  0.17813  0.36077  1.0000
  C   C209      1.0  0.77614  0.20135  0.36308  1.0000
  C   C210      1.0  0.77849  0.22535  0.33812  1.0000
  H   H120      1.0  0.78651  0.27157  0.39584  1.0000
  H   H121      1.0  0.75132  0.16148  0.38208  1.0000
  H   H122      1.0  0.79190  0.20067  0.38653  1.0000
  C   C211      1.0  0.80329  0.54664  0.31058  1.0000
  H   H123      1.0  0.82538  0.52904  0.28687  1.0000
  C   C212      1.0  0.80257  0.24945  0.34402  1.0000
  C   C213      1.0  0.80261  0.56870  0.34196  1.0000
  C   C214      1.0  0.80310  0.27220  0.37429  1.0000
  H   H124      1.0  0.82507  0.31191  0.39780  1.0000
  C   C215      1.0  0.82635  0.54570  0.30941  1.0000
  C   C216      1.0  0.85006  0.29885  0.34827  1.0000
  C   C217      1.0  0.84978  0.27597  0.32106  1.0000
  C   C218      1.0  0.82659  0.25186  0.31885  1.0000
  H   H125      1.0  0.86644  0.27677  0.29955  1.0000
  H   H126      1.0  0.82730  0.23612  0.29536  1.0000
  C   C219      1.0  0.88909  0.51233  0.33853  1.0000
  C   C220      1.0  0.91019  0.50973  0.30881  1.0000
  C   C221      1.0  0.90894  0.48564  0.30905  1.0000
  C   C222      1.0  0.88673  0.46310  0.34057  1.0000
  C   C223      1.0  0.86527  0.41530  0.32029  1.0000
  C   C224      1.0  0.86640  0.39226  0.32175  1.0000
  H   H127      1.0  0.84891  0.41462  0.29589  1.0000
  H   H128      1.0  0.85077  0.37561  0.29881  1.0000
  H   H129      1.0  0.92689  0.52545  0.28655  1.0000
  H   H130      1.0  0.92473  0.48485  0.28647  1.0000
  C   C225      1.0  0.99974  0.37805  0.32905  1.0000
  C   C226      1.0  0.94467  0.35695  0.32450  1.0000
  C   C227      1.0  0.96096  0.37478  0.25842  1.0000
  C   C228      1.0  0.98788  0.38485  0.25991  1.0000
  H   H131      1.0  0.95342  0.38150  0.21040  1.0000
  H   H132      1.0  0.99892  0.39866  0.21328  1.0000
  C   C229      1.0  0.98349  0.63922  0.29710  1.0000
  C   C230      1.0  0.95639  0.62277  0.29920  1.0000
  H   H133      1.0  0.99137  0.65245  0.24597  1.0000
  H   H134      1.0  0.94547  0.62401  0.24825  1.0000
  C   C231      1.0  0.91871  0.58279  0.35641  1.0000
  N   N31       1.0  0.89749  0.58571  0.35059  1.0000
  C   C232      1.0  0.87308  0.56483  0.34216  1.0000
  N   N32       1.0  0.87079  0.54093  0.33902  1.0000
  C   C233      1.0  0.89140  0.53719  0.34289  1.0000
  N   N33       1.0  0.91502  0.55851  0.35199  1.0000
  C   C234      1.0  0.91870  0.35140  0.33239  1.0000
  N   N34       1.0  0.89743  0.32728  0.33775  1.0000
  C   C235      1.0  0.87302  0.32379  0.34542  1.0000
  N   N35       1.0  0.87079  0.34544  0.34832  1.0000
  C   C236      1.0  0.89144  0.36976  0.34489  1.0000
  N   N36       1.0  0.91506  0.37202  0.33650  1.0000
  C   C237      1.0  0.85015  0.56686  0.33865  1.0000
  C   C238      1.0  0.84975  0.58934  0.36668  1.0000
  C   C239      1.0  0.82653  0.59021  0.36845  1.0000
  H   H135      1.0  0.86631  0.60510  0.38940  1.0000
  H   H136      1.0  0.82711  0.60652  0.39293  1.0000
  C   C240      1.0  0.82613  0.29622  0.37595  1.0000
  C   C241      1.0  0.86525  0.46549  0.36725  1.0000
  C   C242      1.0  0.86635  0.48965  0.36577  1.0000
  H   H137      1.0  0.84889  0.44980  0.39152  1.0000
  H   H138      1.0  0.85072  0.49067  0.38872  1.0000
  C   C243      1.0  0.88675  0.43918  0.34685  1.0000
  C   C244      1.0  0.88914  0.39233  0.34901  1.0000
  C   C245      1.0  0.91024  0.41604  0.37867  1.0000
  C   C246      1.0  0.90897  0.43888  0.37833  1.0000
  H   H139      1.0  0.92694  0.41704  0.40095  1.0000
  H   H140      1.0  0.92475  0.45547  0.40089  1.0000
  C   C247      1.0  0.98334  0.35990  0.39445  1.0000
  C   C248      1.0  0.95624  0.34925  0.39167  1.0000
  H   H141      1.0  0.99114  0.35478  0.44651  1.0000
  H   H142      1.0  0.94527  0.33739  0.44313  1.0000
  C   C249      1.0  0.94471  0.60313  0.36510  1.0000
  C   C250      1.0  0.96090  0.60119  0.43061  1.0000
  C   C251      1.0  0.98782  0.61800  0.42976  1.0000
  C   C252      1.0  0.99979  0.63705  0.36187  1.0000
  H   H143      1.0  0.95330  0.58671  0.47777  1.0000
  H   H144      1.0  0.99879  0.61494  0.47588  1.0000
