data_image0
_chemical_formula_structural       CHOC2OHOC4NOC3NOHC3HC2HCHC2HC3H2C3H2C3H2C3H2C3H2C4HNH2NO2C7H2NH2NO2C3HNH2C7H2NH2NO2C7H2NH2NO2C7H2NH2NO2C3OHC6O2H2C6O2H2C2HNH2C2HC3HNH2NO2C3HNH2NO2C2HC3HNH2NO2C2HC3HNH2NO2C2HC3HNH2NO2
_chemical_formula_sum              "C108 H66 O30 N24"
_cell_length_a       32.0251
_cell_length_b       32.0251
_cell_length_c       14.7953
_cell_angle_alpha    90
_cell_angle_beta     90
_cell_angle_gamma    120

_space_group_name_H-M_alt    "P 1"
_space_group_IT_number       1

loop_
  _space_group_symop_operation_xyz
  'x, y, z'

loop_
  _atom_site_type_symbol
  _atom_site_label
  _atom_site_symmetry_multiplicity
  _atom_site_fract_x
  _atom_site_fract_y
  _atom_site_fract_z
  _atom_site_occupancy
  C   C1        1.0  0.06600  0.56951  0.37035  1.0000
  H   H1        1.0  0.04997  0.58864  0.39003  1.0000
  O   O1        1.0  0.08813  0.68622  0.25340  1.0000
  C   C2        1.0  0.03706  0.51913  0.34985  1.0000
  C   C3        1.0  0.06364  0.49480  0.33023  1.0000
  O   O2        1.0  0.04166  0.44800  0.30267  1.0000
  H   H2        1.0  0.03317  0.44789  0.23874  1.0000
  O   O3        1.0  0.09968  0.41798  0.49754  1.0000
  C   C4        1.0  0.11718  0.59525  0.36797  1.0000
  C   C5        1.0  0.14033  0.56859  0.35022  1.0000
  C   C6        1.0  0.14764  0.64681  0.37773  1.0000
  C   C7        1.0  0.14773  0.67932  0.31234  1.0000
  N   N1        1.0  0.10955  0.66242  0.24899  1.0000
  O   O4        1.0  0.12429  0.66445  0.16949  1.0000
  C   C8        1.0  0.11490  0.51866  0.33358  1.0000
  C   C9        1.0  0.14393  0.49598  0.32691  1.0000
  C   C10       1.0  0.15104  0.47386  0.40392  1.0000
  N   N2        1.0  0.11919  0.46199  0.47825  1.0000
  O   O5        1.0  0.14060  0.48629  0.54714  1.0000
  H   H3        1.0  0.17734  0.58625  0.34947  1.0000
  C   C11       1.0  0.22859  0.48651  0.34205  1.0000
  C   C12       1.0  0.22097  0.50757  0.26325  1.0000
  C   C13       1.0  0.17835  0.51065  0.25637  1.0000
  H   H4        1.0  0.17493  0.52912  0.20294  1.0000
  C   C14       1.0  0.18754  0.72710  0.30702  1.0000
  C   C15       1.0  0.22920  0.74312  0.36150  1.0000
  H   H5        1.0  0.18762  0.74928  0.25705  1.0000
  C   C16       1.0  0.19204  0.46790  0.40894  1.0000
  H   H6        1.0  0.19755  0.45395  0.46709  1.0000
  C   C17       1.0  0.22865  0.71115  0.42928  1.0000
  C   C18       1.0  0.18734  0.66466  0.43794  1.0000
  H   H7        1.0  0.18834  0.64116  0.48377  1.0000
  C   C19       1.0  0.88046  0.44515  0.34988  1.0000
  C   C20       1.0  0.90363  0.41853  0.36791  1.0000
  C   C21       1.0  0.95480  0.44430  0.37037  1.0000
  H   H8        1.0  0.84346  0.42746  0.34895  1.0000
  H   H9        1.0  0.97084  0.42520  0.39021  1.0000
  C   C22       1.0  0.44778  0.49992  0.37036  1.0000
  C   C23       1.0  0.42201  0.52533  0.36788  1.0000
  C   C24       1.0  0.44864  0.57512  0.35003  1.0000
  H   H10       1.0  0.42867  0.46477  0.39018  1.0000
  H   H11       1.0  0.43097  0.59445  0.34920  1.0000
  C   C25       1.0  0.57209  0.43870  0.35012  1.0000
  C   C26       1.0  0.59874  0.48851  0.36791  1.0000
  C   C27       1.0  0.57298  0.51393  0.37036  1.0000
  H   H12       1.0  0.58976  0.41936  0.34930  1.0000
  H   H13       1.0  0.59211  0.54909  0.39006  1.0000
  C   C28       1.0  0.51737  0.95136  0.37037  1.0000
  C   C29       1.0  0.49195  0.90018  0.36803  1.0000
  C   C30       1.0  0.44215  0.87702  0.35016  1.0000
  H   H14       1.0  0.55254  0.96740  0.39004  1.0000
  H   H15       1.0  0.42282  0.84001  0.34934  1.0000
  C   C31       1.0  0.57857  0.13689  0.34993  1.0000
  C   C32       1.0  0.52877  0.11373  0.36783  1.0000
  C   C33       1.0  0.50336  0.06255  0.37033  1.0000
  H   H16       1.0  0.59790  0.17389  0.34908  1.0000
  H   H17       1.0  0.46822  0.04653  0.39018  1.0000
  C   C34       1.0  0.37045  0.50420  0.37769  1.0000
  C   C35       1.0  0.33794  0.47177  0.31236  1.0000
  C   C36       1.0  0.29015  0.46380  0.30708  1.0000
  C   C37       1.0  0.27417  0.48947  0.36155  1.0000
  H   H18       1.0  0.26796  0.44170  0.25715  1.0000
  N   N3        1.0  0.25444  0.52816  0.19633  1.0000
  H   H19       1.0  0.28540  0.52965  0.19889  1.0000
  H   H20       1.0  0.24886  0.54325  0.14409  1.0000
  N   N4        1.0  0.35481  0.45045  0.24903  1.0000
  O   O6        1.0  0.35277  0.46314  0.16951  1.0000
  O   O7        1.0  0.33101  0.40524  0.25349  1.0000
  C   C38       1.0  0.51314  0.86979  0.37763  1.0000
  C   C39       1.0  0.54553  0.86965  0.31228  1.0000
  C   C40       1.0  0.55351  0.82984  0.30698  1.0000
  C   C41       1.0  0.52779  0.78815  0.36135  1.0000
  C   C42       1.0  0.53074  0.74554  0.34179  1.0000
  C   C43       1.0  0.50971  0.71690  0.26293  1.0000
  C   C44       1.0  0.50654  0.67115  0.25616  1.0000
  H   H21       1.0  0.48820  0.64933  0.20256  1.0000
  H   H22       1.0  0.57556  0.82972  0.25699  1.0000
  N   N5        1.0  0.48923  0.72984  0.19593  1.0000
  H   H23       1.0  0.48780  0.75935  0.19845  1.0000
  H   H24       1.0  0.47415  0.70919  0.14367  1.0000
  N   N6        1.0  0.56683  0.90784  0.24896  1.0000
  O   O8        1.0  0.55411  0.89310  0.16945  1.0000
  O   O9        1.0  0.61204  0.92925  0.25336  1.0000
  C   C45       1.0  0.27180  0.78871  0.34199  1.0000
  C   C46       1.0  0.30049  0.79634  0.26319  1.0000
  C   C47       1.0  0.34619  0.83897  0.25632  1.0000
  H   H25       1.0  0.36808  0.84239  0.20290  1.0000
  N   N7        1.0  0.28763  0.76287  0.19628  1.0000
  H   H26       1.0  0.25816  0.73191  0.19884  1.0000
  H   H27       1.0  0.30830  0.76845  0.14405  1.0000
  C   C48       1.0  0.65031  0.50967  0.37763  1.0000
  C   C49       1.0  0.68287  0.54207  0.31230  1.0000
  C   C50       1.0  0.73065  0.55005  0.30698  1.0000
  C   C51       1.0  0.74662  0.52432  0.36132  1.0000
  C   C52       1.0  0.79217  0.52724  0.34172  1.0000
  C   C53       1.0  0.79976  0.50623  0.26281  1.0000
  C   C54       1.0  0.84232  0.50304  0.25594  1.0000
  H   H28       1.0  0.84579  0.48472  0.20232  1.0000
  H   H29       1.0  0.75284  0.57211  0.25699  1.0000
  N   N8        1.0  0.76632  0.48577  0.19581  1.0000
  H   H30       1.0  0.73539  0.48435  0.19838  1.0000
  H   H31       1.0  0.77188  0.47071  0.14353  1.0000
  N   N9        1.0  0.66600  0.56339  0.24898  1.0000
  O   O10       1.0  0.66801  0.55068  0.16947  1.0000
  O   O11       1.0  0.68981  0.60861  0.25340  1.0000
  C   C55       1.0  0.50767  0.14418  0.37771  1.0000
  C   C56       1.0  0.47523  0.14427  0.31238  1.0000
  C   C57       1.0  0.46727  0.18410  0.30708  1.0000
  C   C58       1.0  0.49295  0.22576  0.36152  1.0000
  C   C59       1.0  0.48999  0.26837  0.34200  1.0000
  C   C60       1.0  0.51104  0.29703  0.26316  1.0000
  C   C61       1.0  0.51413  0.34274  0.25623  1.0000
  H   H32       1.0  0.53260  0.36462  0.20280  1.0000
  H   H33       1.0  0.44516  0.18418  0.25716  1.0000
  N   N10       1.0  0.53161  0.28413  0.19624  1.0000
  H   H34       1.0  0.53310  0.25466  0.19883  1.0000
  H   H35       1.0  0.54669  0.30478  0.14398  1.0000
  N   N11       1.0  0.45390  0.10608  0.24906  1.0000
  O   O12       1.0  0.46658  0.12080  0.16954  1.0000
  O   O13       1.0  0.40869  0.08468  0.25354  1.0000
  C   C62       1.0  0.87324  0.36695  0.37762  1.0000
  C   C63       1.0  0.87311  0.33439  0.31234  1.0000
  C   C64       1.0  0.83329  0.28661  0.30706  1.0000
  C   C65       1.0  0.79158  0.27068  0.36137  1.0000
  C   C66       1.0  0.74895  0.22514  0.34177  1.0000
  C   C67       1.0  0.72036  0.21755  0.26285  1.0000
  C   C68       1.0  0.67461  0.17499  0.25598  1.0000
  H   H36       1.0  0.65281  0.17152  0.20235  1.0000
  H   H37       1.0  0.83316  0.26442  0.25710  1.0000
  N   N12       1.0  0.73336  0.25099  0.19584  1.0000
  H   H38       1.0  0.76287  0.28190  0.19841  1.0000
  H   H39       1.0  0.71274  0.24543  0.14354  1.0000
  N   N13       1.0  0.91131  0.35125  0.24906  1.0000
  O   O14       1.0  0.89660  0.34922  0.16953  1.0000
  O   O15       1.0  0.93270  0.32743  0.25356  1.0000
  C   C69       1.0  0.98373  0.49467  0.34983  1.0000
  C   C70       1.0  0.95714  0.51897  0.33010  1.0000
  C   C71       1.0  0.90587  0.49507  0.33321  1.0000
  O   O16       1.0  0.97912  0.56578  0.30256  1.0000
  H   H40       1.0  0.98765  0.56591  0.23864  1.0000
  C   C72       1.0  0.49815  0.52136  0.34984  1.0000
  C   C73       1.0  0.49858  0.59965  0.33344  1.0000
  C   C74       1.0  0.52246  0.57225  0.33012  1.0000
  C   C75       1.0  0.52261  0.49249  0.34986  1.0000
  C   C76       1.0  0.49829  0.44159  0.33023  1.0000
  C   C77       1.0  0.52216  0.41419  0.33354  1.0000
  O   O17       1.0  0.56926  0.59709  0.30260  1.0000
  O   O18       1.0  0.45149  0.41676  0.30267  1.0000
  H   H41       1.0  0.56940  0.58870  0.23869  1.0000
  H   H42       1.0  0.45137  0.42513  0.23874  1.0000
  C   C78       1.0  0.49592  0.98028  0.34986  1.0000
  C   C79       1.0  0.41763  0.90243  0.33355  1.0000
  C   C80       1.0  0.44502  0.95370  0.33024  1.0000
  C   C81       1.0  0.52480  0.03362  0.34981  1.0000
  C   C82       1.0  0.57569  0.06020  0.33007  1.0000
  C   C83       1.0  0.60307  0.11147  0.33325  1.0000
  O   O19       1.0  0.42019  0.97567  0.30272  1.0000
  O   O20       1.0  0.60051  0.03822  0.30249  1.0000
  H   H43       1.0  0.42854  0.98416  0.23879  1.0000
  H   H44       1.0  0.59209  0.02969  0.23860  1.0000
  C   C84       1.0  0.30617  0.52092  0.42929  1.0000
  C   C85       1.0  0.35265  0.52609  0.43794  1.0000
  H   H45       1.0  0.37617  0.55060  0.48371  1.0000
  N   N14       1.0  0.29557  0.54904  0.48284  1.0000
  H   H46       1.0  0.31860  0.57117  0.52690  1.0000
  H   H47       1.0  0.26589  0.54990  0.47641  1.0000
  C   C86       1.0  0.49632  0.78869  0.42907  1.0000
  C   C87       1.0  0.49117  0.83001  0.43770  1.0000
  H   H48       1.0  0.46670  0.82902  0.48362  1.0000
  C   C88       1.0  0.52119  0.65133  0.32657  1.0000
  C   C89       1.0  0.54328  0.68056  0.40365  1.0000
  C   C90       1.0  0.54923  0.72752  0.40874  1.0000
  H   H49       1.0  0.56322  0.74694  0.46691  1.0000
  N   N15       1.0  0.46818  0.74996  0.48256  1.0000
  H   H50       1.0  0.44602  0.75085  0.52659  1.0000
  H   H51       1.0  0.46729  0.71941  0.47610  1.0000
  N   N16       1.0  0.55520  0.66060  0.47797  1.0000
  O   O21       1.0  0.53090  0.65767  0.54688  1.0000
  O   O22       1.0  0.59921  0.68512  0.49723  1.0000
  C   C91       1.0  0.36592  0.87339  0.32687  1.0000
  C   C92       1.0  0.33668  0.86627  0.40386  1.0000
  C   C93       1.0  0.28972  0.82526  0.40887  1.0000
  H   H52       1.0  0.27027  0.81975  0.46702  1.0000
  N   N17       1.0  0.26736  0.72177  0.48285  1.0000
  H   H53       1.0  0.26647  0.69875  0.52694  1.0000
  H   H54       1.0  0.29790  0.75145  0.47640  1.0000
  N   N18       1.0  0.35665  0.89812  0.47820  1.0000
  O   O23       1.0  0.35955  0.87672  0.54709  1.0000
  O   O24       1.0  0.33214  0.91762  0.49748  1.0000
  C   C94       1.0  0.71461  0.49285  0.42902  1.0000
  C   C95       1.0  0.66814  0.48770  0.43765  1.0000
  H   H55       1.0  0.64466  0.46323  0.48355  1.0000
  C   C96       1.0  0.87677  0.51766  0.32636  1.0000
  C   C97       1.0  0.86969  0.53974  0.40353  1.0000
  C   C98       1.0  0.82869  0.54570  0.40866  1.0000
  H   H56       1.0  0.82326  0.55967  0.46685  1.0000
  N   N19       1.0  0.72517  0.46468  0.48249  1.0000
  H   H57       1.0  0.70212  0.44252  0.52652  1.0000
  H   H58       1.0  0.75483  0.46379  0.47602  1.0000
  N   N20       1.0  0.90158  0.55164  0.47783  1.0000
  O   O25       1.0  0.88022  0.52732  0.54673  1.0000
  O   O26       1.0  0.92108  0.59565  0.49712  1.0000
  C   C99       1.0  0.52441  0.22521  0.42924  1.0000
  C   C100      1.0  0.52956  0.18389  0.43790  1.0000
  H   H59       1.0  0.55409  0.18488  0.48366  1.0000
  C   C101      1.0  0.49949  0.36248  0.32681  1.0000
  C   C102      1.0  0.47738  0.33330  0.40388  1.0000
  C   C103      1.0  0.47141  0.28634  0.40891  1.0000
  H   H60       1.0  0.45747  0.26690  0.46707  1.0000
  N   N21       1.0  0.55253  0.26393  0.48277  1.0000
  H   H61       1.0  0.57467  0.26303  0.52684  1.0000
  H   H62       1.0  0.55340  0.29447  0.47634  1.0000
  N   N22       1.0  0.46552  0.35330  0.47821  1.0000
  O   O27       1.0  0.48983  0.35620  0.54709  1.0000
  O   O28       1.0  0.42151  0.32881  0.49751  1.0000
  C   C104      1.0  0.79212  0.30272  0.42902  1.0000
  C   C105      1.0  0.83345  0.34919  0.43765  1.0000
  H   H63       1.0  0.83245  0.37268  0.48350  1.0000
  C   C106      1.0  0.65476  0.14055  0.32641  1.0000
  C   C107      1.0  0.68390  0.14763  0.40359  1.0000
  C   C108      1.0  0.73087  0.18862  0.40874  1.0000
  H   H64       1.0  0.75027  0.19405  0.46694  1.0000
  N   N23       1.0  0.75338  0.29217  0.48245  1.0000
  H   H65       1.0  0.75427  0.31523  0.52644  1.0000
  H   H66       1.0  0.72282  0.26251  0.47599  1.0000
  N   N24       1.0  0.66390  0.11575  0.47790  1.0000
  O   O29       1.0  0.66095  0.13712  0.54678  1.0000
  O   O30       1.0  0.68839  0.09624  0.49723  1.0000
