data_image0
_chemical_formula_structural       C2HC2H3N2C5NH3CHC5NH3CHC4NC4NH4N2C2NC3H3CHC2NC3H3CHC2HC2H3N2C5NH3CHC5NH3CHC4NC4NH4N2C2NC3H3CHC2NC3H3CHC2HC2H3N2C5NH3CHC5NH3CHC4NC4NH4N2C2NC3H3CHC2NC3H3CHC2HC2H3N2C5NH3CHC5NH3CHC4NC4NH4N2C2NC3H3CHC2NC3H3CH
_chemical_formula_sum              "C144 H96 N40"
_cell_length_a       38.9478
_cell_length_b       38.9478
_cell_length_c       15.0512
_cell_angle_alpha    90
_cell_angle_beta     90
_cell_angle_gamma    90

_space_group_name_H-M_alt    "P 1"
_space_group_IT_number       1

loop_
  _space_group_symop_operation_xyz
  'x, y, z'

loop_
  _atom_site_type_symbol
  _atom_site_label
  _atom_site_symmetry_multiplicity
  _atom_site_fract_x
  _atom_site_fract_y
  _atom_site_fract_z
  _atom_site_occupancy
  C   C1        1.0  0.49279  0.45203  0.29897  1.0000
  C   C2        1.0  0.46725  0.42643  0.29249  1.0000
  H   H1        1.0  0.01699  0.44612  0.27794  1.0000
  C   C3        1.0  0.02892  0.07280  0.32058  1.0000
  C   C4        1.0  0.00342  0.04704  0.31832  1.0000
  H   H2        1.0  0.47919  0.05391  0.29960  1.0000
  H   H3        1.0  0.08310  0.11301  0.33715  1.0000
  H   H4        1.0  0.41266  0.38620  0.29138  1.0000
  N   N1        1.0  0.02164  0.10594  0.30082  1.0000
  N   N2        1.0  0.47474  0.39410  0.26577  1.0000
  C   C5        1.0  0.02776  0.17712  0.25648  1.0000
  C   C6        1.0  0.52925  0.21261  0.24005  1.0000
  C   C7        1.0  0.99819  0.26775  0.22184  1.0000
  C   C8        1.0  0.00055  0.34056  0.22704  1.0000
  C   C9        1.0  0.03058  0.32040  0.22059  1.0000
  N   N3        1.0  0.02825  0.28565  0.22052  1.0000
  H   H5        1.0  0.05445  0.33132  0.22253  1.0000
  H   H6        1.0  0.55038  0.16424  0.26535  1.0000
  H   H7        1.0  0.55275  0.22435  0.23887  1.0000
  C   C10       1.0  0.00286  0.37624  0.24124  1.0000
  H   H8        1.0  0.02641  0.38783  0.24359  1.0000
  C   C11       1.0  0.32164  0.96632  0.41876  1.0000
  C   C12       1.0  0.28578  0.46457  0.42776  1.0000
  C   C13       1.0  0.23026  0.99550  0.43659  1.0000
  C   C14       1.0  0.15796  0.99382  0.41292  1.0000
  C   C15       1.0  0.17787  0.96357  0.41736  1.0000
  N   N4        1.0  0.21243  0.96562  0.42701  1.0000
  H   H9        1.0  0.16703  0.93988  0.40884  1.0000
  H   H10       1.0  0.33470  0.44397  0.40751  1.0000
  H   H11       1.0  0.27404  0.44118  0.42177  1.0000
  C   C16       1.0  0.12255  0.99206  0.39447  1.0000
  H   H12       1.0  0.11094  0.96867  0.38742  1.0000
  C   C17       1.0  0.48525  0.48602  0.32652  1.0000
  C   C18       1.0  0.43284  0.43394  0.31716  1.0000
  C   C19       1.0  0.42493  0.46754  0.34764  1.0000
  C   C20       1.0  0.45070  0.49302  0.34987  1.0000
  N   N5        1.0  0.40791  0.40928  0.31232  1.0000
  C   C21       1.0  0.01117  0.01185  0.33148  1.0000
  C   C22       1.0  0.04592  0.00362  0.34959  1.0000
  C   C23       1.0  0.07164  0.02902  0.35681  1.0000
  C   C24       1.0  0.06341  0.06407  0.34149  1.0000
  N   N6        1.0  0.08820  0.08887  0.34634  1.0000
  H   H13       1.0  0.11195  0.08352  0.36008  1.0000
  H   H14       1.0  0.38418  0.41392  0.32793  1.0000
  H   H15       1.0  0.44444  0.01654  0.37502  1.0000
  H   H16       1.0  0.05238  0.47886  0.36412  1.0000
  N   N7        1.0  0.10442  0.02093  0.37830  1.0000
  N   N8        1.0  0.39244  0.47407  0.37473  1.0000
  C   C25       1.0  0.99589  0.15973  0.26135  1.0000
  C   C26       1.0  0.99854  0.23159  0.22998  1.0000
  N   N9        1.0  0.96844  0.21383  0.23392  1.0000
  C   C27       1.0  0.96598  0.17949  0.24728  1.0000
  C   C28       1.0  0.96739  0.28698  0.22090  1.0000
  C   C29       1.0  0.96873  0.32299  0.22460  1.0000
  H   H17       1.0  0.94390  0.27524  0.22284  1.0000
  H   H18       1.0  0.94604  0.33611  0.22802  1.0000
  H   H19       1.0  0.94208  0.16868  0.25025  1.0000
  C   C30       1.0  0.99342  0.12438  0.28005  1.0000
  H   H20       1.0  0.96989  0.11274  0.28064  1.0000
  C   C31       1.0  0.33908  0.99819  0.42239  1.0000
  C   C32       1.0  0.26654  0.99507  0.43865  1.0000
  N   N10       1.0  0.28440  0.02507  0.44495  1.0000
  C   C33       1.0  0.31907  0.02766  0.43983  1.0000
  C   C34       1.0  0.21111  0.02635  0.43771  1.0000
  C   C35       1.0  0.17539  0.02538  0.42493  1.0000
  H   H21       1.0  0.22287  0.04973  0.44370  1.0000
  H   H22       1.0  0.16240  0.04819  0.42334  1.0000
  H   H23       1.0  0.32989  0.05155  0.44265  1.0000
  C   C36       1.0  0.37452  0.00124  0.40547  1.0000
  H   H24       1.0  0.38610  0.02476  0.40902  1.0000
  C   C37       1.0  0.49279  0.95203  0.29897  1.0000
  C   C38       1.0  0.46725  0.92643  0.29249  1.0000
  H   H25       1.0  0.01699  0.94612  0.27794  1.0000
  C   C39       1.0  0.02892  0.57280  0.32058  1.0000
  C   C40       1.0  0.00342  0.54704  0.31832  1.0000
  H   H26       1.0  0.47919  0.55391  0.29960  1.0000
  H   H27       1.0  0.08310  0.61301  0.33715  1.0000
  H   H28       1.0  0.41266  0.88620  0.29138  1.0000
  N   N11       1.0  0.02164  0.60594  0.30082  1.0000
  N   N12       1.0  0.47474  0.89411  0.26577  1.0000
  C   C41       1.0  0.02776  0.67712  0.25648  1.0000
  C   C42       1.0  0.52925  0.71261  0.24005  1.0000
  C   C43       1.0  0.99819  0.76775  0.22184  1.0000
  C   C44       1.0  0.00055  0.84056  0.22704  1.0000
  C   C45       1.0  0.03058  0.82040  0.22059  1.0000
  N   N13       1.0  0.02825  0.78565  0.22052  1.0000
  H   H29       1.0  0.05445  0.83132  0.22253  1.0000
  H   H30       1.0  0.55038  0.66424  0.26535  1.0000
  H   H31       1.0  0.55275  0.72435  0.23887  1.0000
  C   C46       1.0  0.00286  0.87624  0.24124  1.0000
  H   H32       1.0  0.02641  0.88783  0.24359  1.0000
  C   C47       1.0  0.32164  0.46632  0.41876  1.0000
  C   C48       1.0  0.28578  0.96457  0.42776  1.0000
  C   C49       1.0  0.23026  0.49550  0.43659  1.0000
  C   C50       1.0  0.15796  0.49382  0.41292  1.0000
  C   C51       1.0  0.17787  0.46357  0.41736  1.0000
  N   N14       1.0  0.21243  0.46562  0.42701  1.0000
  H   H33       1.0  0.16703  0.43988  0.40884  1.0000
  H   H34       1.0  0.33470  0.94397  0.40751  1.0000
  H   H35       1.0  0.27404  0.94118  0.42177  1.0000
  C   C52       1.0  0.12255  0.49206  0.39447  1.0000
  H   H36       1.0  0.11094  0.46867  0.38742  1.0000
  C   C53       1.0  0.48525  0.98601  0.32652  1.0000
  C   C54       1.0  0.43284  0.93394  0.31716  1.0000
  C   C55       1.0  0.42493  0.96754  0.34764  1.0000
  C   C56       1.0  0.45070  0.99302  0.34987  1.0000
  N   N15       1.0  0.40791  0.90928  0.31232  1.0000
  C   C57       1.0  0.01117  0.51185  0.33148  1.0000
  C   C58       1.0  0.04592  0.50362  0.34959  1.0000
  C   C59       1.0  0.07164  0.52902  0.35681  1.0000
  C   C60       1.0  0.06341  0.56407  0.34149  1.0000
  N   N16       1.0  0.08820  0.58887  0.34634  1.0000
  H   H37       1.0  0.11195  0.58352  0.36008  1.0000
  H   H38       1.0  0.38418  0.91392  0.32793  1.0000
  H   H39       1.0  0.44444  0.51654  0.37502  1.0000
  H   H40       1.0  0.05238  0.97886  0.36412  1.0000
  N   N17       1.0  0.10442  0.52093  0.37830  1.0000
  N   N18       1.0  0.39244  0.97407  0.37473  1.0000
  C   C61       1.0  0.99589  0.65973  0.26135  1.0000
  C   C62       1.0  0.99854  0.73160  0.22998  1.0000
  N   N19       1.0  0.96844  0.71383  0.23392  1.0000
  C   C63       1.0  0.96598  0.67949  0.24728  1.0000
  C   C64       1.0  0.96739  0.78698  0.22090  1.0000
  C   C65       1.0  0.96873  0.82299  0.22460  1.0000
  H   H41       1.0  0.94390  0.77523  0.22284  1.0000
  H   H42       1.0  0.94604  0.83611  0.22802  1.0000
  H   H43       1.0  0.94208  0.66868  0.25025  1.0000
  C   C66       1.0  0.99342  0.62438  0.28005  1.0000
  H   H44       1.0  0.96989  0.61274  0.28064  1.0000
  C   C67       1.0  0.33908  0.49819  0.42239  1.0000
  C   C68       1.0  0.26654  0.49507  0.43865  1.0000
  N   N20       1.0  0.28440  0.52507  0.44495  1.0000
  C   C69       1.0  0.31907  0.52766  0.43983  1.0000
  C   C70       1.0  0.21111  0.52635  0.43771  1.0000
  C   C71       1.0  0.17539  0.52538  0.42493  1.0000
  H   H45       1.0  0.22287  0.54973  0.44370  1.0000
  H   H46       1.0  0.16240  0.54819  0.42334  1.0000
  H   H47       1.0  0.32989  0.55156  0.44265  1.0000
  C   C72       1.0  0.37452  0.50124  0.40547  1.0000
  H   H48       1.0  0.38610  0.52476  0.40902  1.0000
  C   C73       1.0  0.99279  0.45203  0.29897  1.0000
  C   C74       1.0  0.96725  0.42643  0.29249  1.0000
  H   H49       1.0  0.51699  0.44612  0.27794  1.0000
  C   C75       1.0  0.52892  0.07280  0.32058  1.0000
  C   C76       1.0  0.50342  0.04704  0.31832  1.0000
  H   H50       1.0  0.97920  0.05391  0.29960  1.0000
  H   H51       1.0  0.58310  0.11301  0.33715  1.0000
  H   H52       1.0  0.91266  0.38620  0.29138  1.0000
  N   N21       1.0  0.52164  0.10594  0.30082  1.0000
  N   N22       1.0  0.97474  0.39410  0.26577  1.0000
  C   C77       1.0  0.52776  0.17712  0.25648  1.0000
  C   C78       1.0  0.02925  0.21261  0.24005  1.0000
  C   C79       1.0  0.49819  0.26775  0.22184  1.0000
  C   C80       1.0  0.50055  0.34056  0.22704  1.0000
  C   C81       1.0  0.53058  0.32040  0.22059  1.0000
  N   N23       1.0  0.52826  0.28565  0.22052  1.0000
  H   H53       1.0  0.55445  0.33132  0.22253  1.0000
  H   H54       1.0  0.05038  0.16424  0.26535  1.0000
  H   H55       1.0  0.05274  0.22435  0.23887  1.0000
  C   C82       1.0  0.50286  0.37624  0.24124  1.0000
  H   H56       1.0  0.52641  0.38783  0.24359  1.0000
  C   C83       1.0  0.82164  0.96632  0.41876  1.0000
  C   C84       1.0  0.78578  0.46457  0.42776  1.0000
  C   C85       1.0  0.73026  0.99550  0.43659  1.0000
  C   C86       1.0  0.65796  0.99382  0.41292  1.0000
  C   C87       1.0  0.67787  0.96357  0.41736  1.0000
  N   N24       1.0  0.71243  0.96562  0.42701  1.0000
  H   H57       1.0  0.66703  0.93988  0.40884  1.0000
  H   H58       1.0  0.83470  0.44397  0.40751  1.0000
  H   H59       1.0  0.77404  0.44118  0.42177  1.0000
  C   C88       1.0  0.62255  0.99206  0.39447  1.0000
  H   H60       1.0  0.61094  0.96867  0.38742  1.0000
  C   C89       1.0  0.98525  0.48602  0.32652  1.0000
  C   C90       1.0  0.93284  0.43394  0.31716  1.0000
  C   C91       1.0  0.92493  0.46754  0.34764  1.0000
  C   C92       1.0  0.95070  0.49302  0.34987  1.0000
  N   N25       1.0  0.90791  0.40928  0.31232  1.0000
  C   C93       1.0  0.51117  0.01185  0.33148  1.0000
  C   C94       1.0  0.54592  0.00362  0.34959  1.0000
  C   C95       1.0  0.57164  0.02902  0.35681  1.0000
  C   C96       1.0  0.56341  0.06407  0.34149  1.0000
  N   N26       1.0  0.58820  0.08887  0.34634  1.0000
  H   H61       1.0  0.61195  0.08352  0.36008  1.0000
  H   H62       1.0  0.88418  0.41392  0.32793  1.0000
  H   H63       1.0  0.94444  0.01654  0.37502  1.0000
  H   H64       1.0  0.55238  0.47886  0.36412  1.0000
  N   N27       1.0  0.60442  0.02093  0.37830  1.0000
  N   N28       1.0  0.89244  0.47407  0.37473  1.0000
  C   C97       1.0  0.49589  0.15973  0.26135  1.0000
  C   C98       1.0  0.49854  0.23159  0.22998  1.0000
  N   N29       1.0  0.46844  0.21383  0.23392  1.0000
  C   C99       1.0  0.46598  0.17949  0.24728  1.0000
  C   C100      1.0  0.46739  0.28698  0.22090  1.0000
  C   C101      1.0  0.46873  0.32299  0.22460  1.0000
  H   H65       1.0  0.44390  0.27524  0.22284  1.0000
  H   H66       1.0  0.44604  0.33611  0.22802  1.0000
  H   H67       1.0  0.44208  0.16868  0.25025  1.0000
  C   C102      1.0  0.49342  0.12438  0.28005  1.0000
  H   H68       1.0  0.46988  0.11274  0.28064  1.0000
  C   C103      1.0  0.83908  0.99819  0.42239  1.0000
  C   C104      1.0  0.76654  0.99507  0.43865  1.0000
  N   N30       1.0  0.78440  0.02507  0.44495  1.0000
  C   C105      1.0  0.81907  0.02766  0.43983  1.0000
  C   C106      1.0  0.71111  0.02635  0.43771  1.0000
  C   C107      1.0  0.67539  0.02538  0.42493  1.0000
  H   H69       1.0  0.72287  0.04973  0.44370  1.0000
  H   H70       1.0  0.66240  0.04819  0.42334  1.0000
  H   H71       1.0  0.82989  0.05155  0.44265  1.0000
  C   C108      1.0  0.87452  0.00124  0.40547  1.0000
  H   H72       1.0  0.88610  0.02476  0.40902  1.0000
  C   C109      1.0  0.99279  0.95203  0.29897  1.0000
  C   C110      1.0  0.96725  0.92643  0.29249  1.0000
  H   H73       1.0  0.51699  0.94612  0.27794  1.0000
  C   C111      1.0  0.52892  0.57280  0.32058  1.0000
  C   C112      1.0  0.50342  0.54704  0.31832  1.0000
  H   H74       1.0  0.97920  0.55391  0.29960  1.0000
  H   H75       1.0  0.58310  0.61301  0.33715  1.0000
  H   H76       1.0  0.91266  0.88620  0.29138  1.0000
  N   N31       1.0  0.52164  0.60594  0.30082  1.0000
  N   N32       1.0  0.97474  0.89411  0.26577  1.0000
  C   C113      1.0  0.52776  0.67712  0.25648  1.0000
  C   C114      1.0  0.02925  0.71261  0.24005  1.0000
  C   C115      1.0  0.49819  0.76775  0.22184  1.0000
  C   C116      1.0  0.50055  0.84056  0.22704  1.0000
  C   C117      1.0  0.53058  0.82040  0.22059  1.0000
  N   N33       1.0  0.52826  0.78565  0.22052  1.0000
  H   H77       1.0  0.55445  0.83132  0.22253  1.0000
  H   H78       1.0  0.05038  0.66424  0.26535  1.0000
  H   H79       1.0  0.05274  0.72435  0.23887  1.0000
  C   C118      1.0  0.50286  0.87624  0.24124  1.0000
  H   H80       1.0  0.52641  0.88783  0.24359  1.0000
  C   C119      1.0  0.82164  0.46632  0.41876  1.0000
  C   C120      1.0  0.78578  0.96457  0.42776  1.0000
  C   C121      1.0  0.73026  0.49550  0.43659  1.0000
  C   C122      1.0  0.65796  0.49382  0.41292  1.0000
  C   C123      1.0  0.67787  0.46357  0.41736  1.0000
  N   N34       1.0  0.71243  0.46562  0.42701  1.0000
  H   H81       1.0  0.66703  0.43988  0.40884  1.0000
  H   H82       1.0  0.83470  0.94397  0.40751  1.0000
  H   H83       1.0  0.77404  0.94118  0.42177  1.0000
  C   C124      1.0  0.62255  0.49206  0.39447  1.0000
  H   H84       1.0  0.61094  0.46867  0.38742  1.0000
  C   C125      1.0  0.98525  0.98601  0.32652  1.0000
  C   C126      1.0  0.93284  0.93394  0.31716  1.0000
  C   C127      1.0  0.92493  0.96754  0.34764  1.0000
  C   C128      1.0  0.95070  0.99302  0.34987  1.0000
  N   N35       1.0  0.90791  0.90928  0.31232  1.0000
  C   C129      1.0  0.51117  0.51185  0.33148  1.0000
  C   C130      1.0  0.54592  0.50362  0.34959  1.0000
  C   C131      1.0  0.57164  0.52902  0.35681  1.0000
  C   C132      1.0  0.56341  0.56407  0.34149  1.0000
  N   N36       1.0  0.58820  0.58887  0.34634  1.0000
  H   H85       1.0  0.61195  0.58352  0.36008  1.0000
  H   H86       1.0  0.88418  0.91392  0.32793  1.0000
  H   H87       1.0  0.94444  0.51654  0.37502  1.0000
  H   H88       1.0  0.55238  0.97886  0.36412  1.0000
  N   N37       1.0  0.60442  0.52093  0.37830  1.0000
  N   N38       1.0  0.89244  0.97407  0.37473  1.0000
  C   C133      1.0  0.49589  0.65973  0.26135  1.0000
  C   C134      1.0  0.49854  0.73160  0.22998  1.0000
  N   N39       1.0  0.46844  0.71383  0.23392  1.0000
  C   C135      1.0  0.46598  0.67949  0.24728  1.0000
  C   C136      1.0  0.46739  0.78698  0.22090  1.0000
  C   C137      1.0  0.46873  0.82299  0.22460  1.0000
  H   H89       1.0  0.44390  0.77523  0.22284  1.0000
  H   H90       1.0  0.44604  0.83611  0.22802  1.0000
  H   H91       1.0  0.44208  0.66868  0.25025  1.0000
  C   C138      1.0  0.49342  0.62438  0.28005  1.0000
  H   H92       1.0  0.46988  0.61274  0.28064  1.0000
  C   C139      1.0  0.83908  0.49819  0.42239  1.0000
  C   C140      1.0  0.76654  0.49507  0.43865  1.0000
  N   N40       1.0  0.78440  0.52507  0.44495  1.0000
  C   C141      1.0  0.81907  0.52766  0.43983  1.0000
  C   C142      1.0  0.71111  0.52635  0.43771  1.0000
  C   C143      1.0  0.67539  0.52538  0.42493  1.0000
  H   H93       1.0  0.72287  0.54973  0.44370  1.0000
  H   H94       1.0  0.66240  0.54819  0.42334  1.0000
  H   H95       1.0  0.82989  0.55156  0.44265  1.0000
  C   C144      1.0  0.87452  0.50124  0.40547  1.0000
  H   H96       1.0  0.88610  0.52476  0.40902  1.0000
