data_image0
_chemical_formula_structural       C6H6N2C8H5CN2HNC8H5CN2HNC8H5CN2HNC6H2NH2NO2CHC6H2NH2NO2CHC6H2NH2NO2CHC2HC4HNH2NO2CHC2HC4HNH2NO2CHC2HC4HNH2NO2CHC12H5CNC2NHN2C10H6CNCN2C10H6CNCN2C10H6CNCN2C2HC4HNH2NO2CHC2HC4HNH2NO2CHC2HC4HNH2NO2CHC6H2NH2NO2CHC6H2NH2NO2CHC6H2NH2NO2CH
_chemical_formula_sum              "C168 H108 N48 O24"
_cell_length_a       67.6607
_cell_length_b       67.6704
_cell_length_c       14.9775
_cell_angle_alpha    90
_cell_angle_beta     90
_cell_angle_gamma    119.982

_space_group_name_H-M_alt    "P 1"
_space_group_IT_number       1

loop_
  _space_group_symop_operation_xyz
  'x, y, z'

loop_
  _atom_site_type_symbol
  _atom_site_label
  _atom_site_symmetry_multiplicity
  _atom_site_fract_x
  _atom_site_fract_y
  _atom_site_fract_z
  _atom_site_occupancy
  C   C1        1.0  0.97025  0.02067  0.33195  1.0000
  C   C2        1.0  0.93630  0.91266  0.31820  1.0000
  C   C3        1.0  0.94792  0.93667  0.31884  1.0000
  C   C4        1.0  0.94629  0.00893  0.34521  1.0000
  C   C5        1.0  0.93391  0.02057  0.34561  1.0000
  C   C6        1.0  0.94497  0.04430  0.33080  1.0000
  H   H1        1.0  0.91899  0.90397  0.30963  1.0000
  H   H2        1.0  0.93857  0.94459  0.30928  1.0000
  H   H3        1.0  0.93751  0.99169  0.35588  1.0000
  H   H4        1.0  0.91665  0.01153  0.35597  1.0000
  H   H5        1.0  0.08860  0.01505  0.30947  1.0000
  H   H6        1.0  0.04798  0.99401  0.30914  1.0000
  N   N1        1.0  0.97217  0.98571  0.33213  1.0000
  N   N2        1.0  0.93252  0.05452  0.33355  1.0000
  C   C7        1.0  0.45544  0.26441  0.33811  1.0000
  C   C8        1.0  0.37025  0.20429  0.35061  1.0000
  C   C9        1.0  0.34624  0.19242  0.34970  1.0000
  C   C10       1.0  0.49244  0.19548  0.36789  1.0000
  C   C11       1.0  0.47884  0.20575  0.37124  1.0000
  C   C12       1.0  0.47897  0.27565  0.31604  1.0000
  C   C13       1.0  0.49221  0.29955  0.31463  1.0000
  C   C14       1.0  0.48248  0.31308  0.33656  1.0000
  H   H7        1.0  0.33787  0.20143  0.35635  1.0000
  H   H8        1.0  0.48641  0.22239  0.39164  1.0000
  H   H9        1.0  0.50933  0.20498  0.38482  1.0000
  H   H10       1.0  0.48688  0.26659  0.30002  1.0000
  H   H11       1.0  0.50917  0.30700  0.29872  1.0000
  C   C15       1.0  0.44244  0.24013  0.34080  1.0000
  N   N3        1.0  0.45331  0.22791  0.34321  1.0000
  N   N4        1.0  0.41924  0.22811  0.34051  1.0000
  H   H12       1.0  0.37848  0.22160  0.35927  1.0000
  N   N5        1.0  0.49649  0.33545  0.33512  1.0000
  C   C16       1.0  0.72830  0.19133  0.33810  1.0000
  C   C17       1.0  0.78841  0.16622  0.35054  1.0000
  C   C18       1.0  0.80028  0.15407  0.34962  1.0000
  C   C19       1.0  0.79722  0.29719  0.36795  1.0000
  C   C20       1.0  0.78697  0.27334  0.37136  1.0000
  C   C21       1.0  0.71705  0.20362  0.31606  1.0000
  C   C22       1.0  0.69315  0.19298  0.31476  1.0000
  C   C23       1.0  0.67962  0.16974  0.33676  1.0000
  H   H13       1.0  0.79127  0.13671  0.35630  1.0000
  H   H14       1.0  0.77033  0.26427  0.39184  1.0000
  H   H15       1.0  0.78773  0.30459  0.38504  1.0000
  H   H16       1.0  0.72611  0.22058  0.30001  1.0000
  H   H17       1.0  0.68570  0.20249  0.29888  1.0000
  C   C24       1.0  0.75257  0.20258  0.34076  1.0000
  N   N6        1.0  0.76480  0.22567  0.34318  1.0000
  N   N7        1.0  0.76459  0.19140  0.34045  1.0000
  H   H18       1.0  0.77110  0.15715  0.35924  1.0000
  N   N8        1.0  0.65724  0.16140  0.33550  1.0000
  C   C25       1.0  0.80122  0.53710  0.33809  1.0000
  C   C26       1.0  0.82632  0.62230  0.35059  1.0000
  C   C27       1.0  0.83846  0.64631  0.34970  1.0000
  C   C28       1.0  0.69534  0.50019  0.36788  1.0000
  C   C29       1.0  0.71920  0.51378  0.37129  1.0000
  C   C30       1.0  0.78894  0.51358  0.31603  1.0000
  C   C31       1.0  0.79959  0.50033  0.31475  1.0000
  C   C32       1.0  0.82283  0.51002  0.33675  1.0000
  H   H19       1.0  0.85583  0.65466  0.35637  1.0000
  H   H20       1.0  0.72827  0.50621  0.39173  1.0000
  H   H21       1.0  0.68795  0.48330  0.38493  1.0000
  H   H22       1.0  0.77198  0.50569  0.30000  1.0000
  H   H23       1.0  0.79008  0.48337  0.29887  1.0000
  C   C33       1.0  0.78997  0.55013  0.34074  1.0000
  N   N9        1.0  0.76687  0.53927  0.34315  1.0000
  N   N10       1.0  0.80115  0.57332  0.34045  1.0000
  H   H24       1.0  0.83539  0.61406  0.35927  1.0000
  N   N11       1.0  0.83118  0.49600  0.33550  1.0000
  C   C34       1.0  0.15274  0.07290  0.30162  1.0000
  C   C35       1.0  0.16748  0.08434  0.22880  1.0000
  C   C36       1.0  0.19115  0.09824  0.24459  1.0000
  C   C37       1.0  0.20053  0.10074  0.33092  1.0000
  C   C38       1.0  0.24011  0.10723  0.31682  1.0000
  C   C39       1.0  0.26377  0.12238  0.32899  1.0000
  H   H25       1.0  0.27486  0.11678  0.31293  1.0000
  H   H26       1.0  0.20168  0.10647  0.19163  1.0000
  N   N12       1.0  0.23311  0.08597  0.28400  1.0000
  H   H27       1.0  0.21707  0.07482  0.27596  1.0000
  H   H28       1.0  0.24401  0.08112  0.26851  1.0000
  N   N13       1.0  0.15833  0.08187  0.14169  1.0000
  O   O1        1.0  0.16648  0.07333  0.08900  1.0000
  O   O2        1.0  0.16209  0.10069  0.11063  1.0000
  C   C40       1.0  0.12964  0.05809  0.28846  1.0000
  H   H29       1.0  0.12490  0.04616  0.24150  1.0000
  C   C41       1.0  0.91967  0.07991  0.30165  1.0000
  C   C42       1.0  0.90825  0.08324  0.22884  1.0000
  C   C43       1.0  0.89438  0.09305  0.24461  1.0000
  C   C44       1.0  0.89189  0.09993  0.33095  1.0000
  C   C45       1.0  0.88544  0.13304  0.31686  1.0000
  C   C46       1.0  0.87031  0.14158  0.32902  1.0000
  H   H30       1.0  0.87592  0.15828  0.31296  1.0000
  H   H31       1.0  0.88616  0.09537  0.19165  1.0000
  N   N14       1.0  0.90670  0.14728  0.28403  1.0000
  H   H32       1.0  0.91785  0.14237  0.27599  1.0000
  H   H33       1.0  0.91158  0.16303  0.26854  1.0000
  N   N15       1.0  0.91072  0.07656  0.14171  1.0000
  O   O3        1.0  0.91929  0.09325  0.08905  1.0000
  O   O4        1.0  0.89189  0.06154  0.11062  1.0000
  C   C47       1.0  0.93446  0.07158  0.28850  1.0000
  H   H34       1.0  0.94641  0.07877  0.24160  1.0000
  C   C48       1.0  0.91263  0.83981  0.30159  1.0000
  C   C49       1.0  0.90930  0.82506  0.22878  1.0000
  C   C50       1.0  0.89948  0.80138  0.24459  1.0000
  C   C51       1.0  0.89261  0.79202  0.33094  1.0000
  C   C52       1.0  0.85949  0.75247  0.31687  1.0000
  C   C53       1.0  0.85095  0.72881  0.32905  1.0000
  H   H35       1.0  0.83425  0.71774  0.31299  1.0000
  H   H36       1.0  0.89715  0.79084  0.19163  1.0000
  N   N16       1.0  0.84525  0.75951  0.28403  1.0000
  H   H37       1.0  0.85016  0.77555  0.27598  1.0000
  H   H38       1.0  0.82950  0.74863  0.26854  1.0000
  N   N17       1.0  0.91596  0.83419  0.14165  1.0000
  O   O5        1.0  0.89927  0.82608  0.08901  1.0000
  O   O6        1.0  0.93099  0.83038  0.11054  1.0000
  C   C54       1.0  0.92096  0.86292  0.28841  1.0000
  H   H39       1.0  0.91377  0.86767  0.24150  1.0000
  C   C55       1.0  0.58736  0.13571  0.25850  1.0000
  C   C56       1.0  0.60858  0.13685  0.27310  1.0000
  H   H40       1.0  0.61691  0.13472  0.22000  1.0000
  C   C57       1.0  0.55564  0.13989  0.32329  1.0000
  C   C58       1.0  0.51653  0.14504  0.30793  1.0000
  C   C59       1.0  0.53788  0.16224  0.27423  1.0000
  C   C60       1.0  0.55716  0.15946  0.28292  1.0000
  H   H41       1.0  0.57257  0.17210  0.25954  1.0000
  N   N18       1.0  0.57850  0.13139  0.17447  1.0000
  H   H42       1.0  0.58641  0.12903  0.12493  1.0000
  H   H43       1.0  0.56372  0.12982  0.16144  1.0000
  N   N19       1.0  0.53972  0.18184  0.23200  1.0000
  O   O7        1.0  0.54614  0.18342  0.15230  1.0000
  O   O8        1.0  0.55337  0.19982  0.27262  1.0000
  C   C61       1.0  0.49709  0.14698  0.30396  1.0000
  H   H44       1.0  0.48269  0.13414  0.27994  1.0000
  C   C62       1.0  0.85691  0.45182  0.25849  1.0000
  C   C63       1.0  0.85575  0.47189  0.27310  1.0000
  H   H45       1.0  0.85787  0.48234  0.22001  1.0000
  C   C64       1.0  0.85275  0.41594  0.32326  1.0000
  C   C65       1.0  0.84763  0.37169  0.30787  1.0000
  C   C66       1.0  0.83042  0.37585  0.27418  1.0000
  C   C67       1.0  0.83318  0.39788  0.28288  1.0000
  H   H46       1.0  0.82053  0.40065  0.25952  1.0000
  N   N20       1.0  0.86123  0.44729  0.17445  1.0000
  H   H47       1.0  0.86358  0.45756  0.12492  1.0000
  H   H48       1.0  0.86281  0.43408  0.16141  1.0000
  N   N21       1.0  0.81082  0.35808  0.23195  1.0000
  O   O9        1.0  0.80923  0.36292  0.15225  1.0000
  O   O10       1.0  0.79284  0.35375  0.27258  1.0000
  C   C68       1.0  0.84570  0.35033  0.30390  1.0000
  H   H49       1.0  0.85854  0.34877  0.27985  1.0000
  C   C69       1.0  0.54068  0.40532  0.25846  1.0000
  C   C70       1.0  0.52061  0.38410  0.27303  1.0000
  H   H50       1.0  0.51016  0.37579  0.21993  1.0000
  C   C71       1.0  0.57657  0.43701  0.32329  1.0000
  C   C72       1.0  0.62082  0.47612  0.30793  1.0000
  C   C73       1.0  0.61667  0.45477  0.27420  1.0000
  C   C74       1.0  0.59463  0.43550  0.28290  1.0000
  H   H51       1.0  0.59186  0.42009  0.25949  1.0000
  N   N22       1.0  0.54522  0.41419  0.17445  1.0000
  H   H52       1.0  0.53495  0.40629  0.12490  1.0000
  H   H53       1.0  0.55843  0.42896  0.16144  1.0000
  N   N23       1.0  0.63444  0.45293  0.23195  1.0000
  O   O11       1.0  0.62960  0.44651  0.15224  1.0000
  O   O12       1.0  0.63877  0.43928  0.27254  1.0000
  C   C75       1.0  0.64219  0.49555  0.30396  1.0000
  H   H54       1.0  0.64374  0.50995  0.27996  1.0000
  C   C76       1.0  0.97186  0.94959  0.33188  1.0000
  C   C77       1.0  0.04294  0.02227  0.33194  1.0000
  C   C78       1.0  0.98361  0.93738  0.34513  1.0000
  C   C79       1.0  0.97197  0.91336  0.34550  1.0000
  C   C80       1.0  0.94824  0.90070  0.33065  1.0000
  C   C81       1.0  0.96887  0.05624  0.31830  1.0000
  C   C82       1.0  0.98126  0.04461  0.31893  1.0000
  C   C83       1.0  0.05514  0.04622  0.34531  1.0000
  C   C84       1.0  0.07916  0.05860  0.34569  1.0000
  C   C85       1.0  0.09183  0.04756  0.33069  1.0000
  C   C86       1.0  0.07989  0.02366  0.31814  1.0000
  C   C87       1.0  0.05588  0.01127  0.31878  1.0000
  H   H55       1.0  0.98101  0.90514  0.35591  1.0000
  H   H56       1.0  0.99853  0.05396  0.30937  1.0000
  H   H57       1.0  0.97749  0.07355  0.30976  1.0000
  H   H58       1.0  0.04667  0.05499  0.35615  1.0000
  H   H59       1.0  0.08736  0.07586  0.35618  1.0000
  C   C88       1.0  0.01858  0.00968  0.33217  1.0000
  N   N24       1.0  0.00606  0.02035  0.33216  1.0000
  C   C89       1.0  0.98284  0.00889  0.33217  1.0000
  C   C90       1.0  0.98364  0.97395  0.33214  1.0000
  N   N25       1.0  0.00683  0.98646  0.33212  1.0000
  H   H60       1.0  0.00085  0.94583  0.35586  1.0000
  N   N26       1.0  0.11450  0.06001  0.33349  1.0000
  N   N27       1.0  0.93803  0.87804  0.33344  1.0000
  C   C91       1.0  0.45550  0.19363  0.34631  1.0000
  C   C92       1.0  0.38275  0.19274  0.34027  1.0000
  C   C93       1.0  0.33383  0.16849  0.33841  1.0000
  C   C94       1.0  0.34606  0.15688  0.32626  1.0000
  C   C95       1.0  0.37009  0.16875  0.32811  1.0000
  C   C96       1.0  0.44617  0.17057  0.31989  1.0000
  C   C97       1.0  0.45987  0.16030  0.31560  1.0000
  C   C98       1.0  0.48324  0.17278  0.33892  1.0000
  C   C99       1.0  0.45899  0.30215  0.35770  1.0000
  C   C100      1.0  0.44565  0.27814  0.35792  1.0000
  H   H61       1.0  0.33753  0.13958  0.31686  1.0000
  H   H62       1.0  0.37822  0.15958  0.31935  1.0000
  H   H63       1.0  0.42948  0.16122  0.30042  1.0000
  H   H64       1.0  0.45274  0.14382  0.29395  1.0000
  H   H65       1.0  0.45142  0.31156  0.37293  1.0000
  H   H66       1.0  0.42876  0.27081  0.37444  1.0000
  C   C101      1.0  0.44240  0.20481  0.34490  1.0000
  N   N28       1.0  0.41920  0.19362  0.34314  1.0000
  C   C102      1.0  0.40713  0.20484  0.34145  1.0000
  N   N29       1.0  0.49784  0.16519  0.33291  1.0000
  N   N30       1.0  0.31114  0.15646  0.33474  1.0000
  C   C103      1.0  0.79908  0.26212  0.34630  1.0000
  C   C104      1.0  0.79997  0.19026  0.34018  1.0000
  C   C105      1.0  0.82421  0.16558  0.33827  1.0000
  C   C106      1.0  0.83583  0.18942  0.32612  1.0000
  C   C107      1.0  0.82396  0.20158  0.32799  1.0000
  C   C108      1.0  0.82214  0.27585  0.31979  1.0000
  C   C109      1.0  0.83240  0.29981  0.31550  1.0000
  C   C110      1.0  0.81993  0.31069  0.33890  1.0000
  C   C111      1.0  0.69055  0.15717  0.35787  1.0000
  C   C112      1.0  0.71456  0.16781  0.35796  1.0000
  H   H67       1.0  0.85313  0.19817  0.31671  1.0000
  H   H68       1.0  0.83313  0.21888  0.31923  1.0000
  H   H69       1.0  0.83148  0.26850  0.30018  1.0000
  H   H70       1.0  0.84888  0.30915  0.29371  1.0000
  H   H71       1.0  0.68114  0.14020  0.37319  1.0000
  H   H72       1.0  0.72190  0.15826  0.37454  1.0000
  C   C113      1.0  0.78790  0.23785  0.34485  1.0000
  N   N31       1.0  0.79909  0.22583  0.34307  1.0000
  C   C114      1.0  0.78787  0.20255  0.34137  1.0000
  N   N32       1.0  0.82750  0.33288  0.33287  1.0000
  N   N33       1.0  0.83624  0.15491  0.33462  1.0000
  C   C115      1.0  0.73041  0.53711  0.34628  1.0000
  C   C116      1.0  0.80227  0.60983  0.34022  1.0000
  C   C117      1.0  0.82695  0.65874  0.33840  1.0000
  C   C118      1.0  0.80311  0.64652  0.32620  1.0000
  C   C119      1.0  0.79095  0.62250  0.32805  1.0000
  C   C120      1.0  0.71668  0.54645  0.31988  1.0000
  C   C121      1.0  0.69272  0.53275  0.31553  1.0000
  C   C122      1.0  0.68184  0.50939  0.33885  1.0000
  C   C123      1.0  0.83540  0.53352  0.35788  1.0000
  C   C124      1.0  0.82475  0.54688  0.35795  1.0000
  H   H73       1.0  0.79436  0.65507  0.31679  1.0000
  H   H74       1.0  0.77365  0.61438  0.31925  1.0000
  H   H75       1.0  0.72402  0.56313  0.30022  1.0000
  H   H76       1.0  0.68337  0.53989  0.29377  1.0000
  H   H77       1.0  0.85236  0.54107  0.37319  1.0000
  H   H78       1.0  0.83430  0.56377  0.37454  1.0000
  C   C125      1.0  0.75469  0.55019  0.34482  1.0000
  N   N34       1.0  0.76670  0.57340  0.34307  1.0000
  C   C126      1.0  0.78999  0.58545  0.34138  1.0000
  N   N35       1.0  0.65965  0.49479  0.33286  1.0000
  N   N36       1.0  0.83762  0.68142  0.33472  1.0000
  C   C127      1.0  0.18584  0.08934  0.40435  1.0000
  C   C128      1.0  0.16213  0.07563  0.38817  1.0000
  H   H79       1.0  0.15153  0.06703  0.44053  1.0000
  C   C129      1.0  0.22459  0.11474  0.34067  1.0000
  C   C130      1.0  0.27251  0.14468  0.36400  1.0000
  C   C131      1.0  0.25676  0.15195  0.38733  1.0000
  C   C132      1.0  0.23311  0.13694  0.37518  1.0000
  H   H80       1.0  0.22196  0.14242  0.39215  1.0000
  N   N37       1.0  0.19370  0.09073  0.48915  1.0000
  H   H81       1.0  0.18336  0.08267  0.53831  1.0000
  H   H82       1.0  0.20984  0.09953  0.50348  1.0000
  N   N38       1.0  0.26471  0.17415  0.42219  1.0000
  O   O13       1.0  0.25718  0.17347  0.49951  1.0000
  O   O14       1.0  0.25928  0.18573  0.37299  1.0000
  C   C133      1.0  0.29596  0.15895  0.37701  1.0000
  H   H83       1.0  0.30120  0.17150  0.42147  1.0000
  C   C134      1.0  0.90327  0.09661  0.40439  1.0000
  C   C135      1.0  0.91695  0.08657  0.38821  1.0000
  H   H84       1.0  0.92554  0.08455  0.44057  1.0000
  C   C136      1.0  0.87791  0.11002  0.34070  1.0000
  C   C137      1.0  0.84800  0.12805  0.36403  1.0000
  C   C138      1.0  0.84071  0.10505  0.38737  1.0000
  C   C139      1.0  0.85570  0.09637  0.37521  1.0000
  H   H85       1.0  0.85020  0.07974  0.39219  1.0000
  N   N39       1.0  0.90188  0.10307  0.48919  1.0000
  H   H86       1.0  0.90994  0.10078  0.53836  1.0000
  H   H87       1.0  0.89310  0.11044  0.50352  1.0000
  N   N40       1.0  0.81850  0.09082  0.42223  1.0000
  O   O15       1.0  0.81918  0.08397  0.49955  1.0000
  O   O16       1.0  0.80691  0.07382  0.37304  1.0000
  C   C140      1.0  0.83375  0.13726  0.37704  1.0000
  H   H88       1.0  0.82122  0.12999  0.42158  1.0000
  C   C141      1.0  0.89594  0.80672  0.40436  1.0000
  C   C142      1.0  0.90597  0.83043  0.38816  1.0000
  H   H89       1.0  0.90800  0.84105  0.44051  1.0000
  C   C143      1.0  0.88252  0.76796  0.34071  1.0000
  C   C144      1.0  0.86448  0.72003  0.36408  1.0000
  C   C145      1.0  0.88749  0.73574  0.38741  1.0000
  C   C146      1.0  0.89617  0.75940  0.37523  1.0000
  H   H90       1.0  0.91280  0.77052  0.39221  1.0000
  N   N41       1.0  0.88948  0.79888  0.48917  1.0000
  H   H91       1.0  0.89177  0.80923  0.53833  1.0000
  H   H92       1.0  0.88211  0.78274  0.50351  1.0000
  N   N42       1.0  0.90172  0.72775  0.42228  1.0000
  O   O17       1.0  0.90858  0.73528  0.49960  1.0000
  O   O18       1.0  0.91872  0.73315  0.37309  1.0000
  C   C147      1.0  0.85527  0.69659  0.37711  1.0000
  H   H93       1.0  0.86255  0.69132  0.42165  1.0000
  C   C148      1.0  0.61873  0.14112  0.35860  1.0000
  C   C149      1.0  0.60744  0.14427  0.43220  1.0000
  C   C150      1.0  0.58628  0.14322  0.41802  1.0000
  C   C151      1.0  0.57614  0.13904  0.33249  1.0000
  C   C152      1.0  0.53423  0.12244  0.35606  1.0000
  C   C153      1.0  0.51500  0.12536  0.34751  1.0000
  H   H94       1.0  0.49956  0.11292  0.37168  1.0000
  H   H95       1.0  0.57844  0.14603  0.47110  1.0000
  N   N43       1.0  0.53146  0.10298  0.39449  1.0000
  H   H96       1.0  0.54398  0.09991  0.39981  1.0000
  H   H97       1.0  0.51661  0.09117  0.41586  1.0000
  N   N44       1.0  0.61777  0.14908  0.51778  1.0000
  O   O19       1.0  0.60533  0.13422  0.57387  1.0000
  O   O20       1.0  0.62188  0.16829  0.54557  1.0000
  C   C154      1.0  0.64011  0.14350  0.36799  1.0000
  H   H98       1.0  0.64215  0.13268  0.40643  1.0000
  C   C155      1.0  0.85147  0.47776  0.35860  1.0000
  C   C156      1.0  0.84833  0.46333  0.43220  1.0000
  C   C157      1.0  0.84939  0.44322  0.41801  1.0000
  C   C158      1.0  0.85358  0.43728  0.33247  1.0000
  C   C159      1.0  0.87021  0.41198  0.35601  1.0000
  C   C160      1.0  0.86730  0.38984  0.34745  1.0000
  H   H99       1.0  0.87975  0.38685  0.37162  1.0000
  H   H100      1.0  0.84659  0.43258  0.47108  1.0000
  N   N45       1.0  0.88966  0.42866  0.39445  1.0000
  H   H101      1.0  0.89272  0.44425  0.39977  1.0000
  H   H102      1.0  0.90148  0.42564  0.41581  1.0000
  N   N46       1.0  0.84352  0.46884  0.51779  1.0000
  O   O21       1.0  0.85838  0.47125  0.57387  1.0000
  O   O22       1.0  0.82430  0.45374  0.54557  1.0000
  C   C161      1.0  0.84908  0.49676  0.36802  1.0000
  H   H103      1.0  0.85989  0.50961  0.40647  1.0000
  C   C162      1.0  0.51474  0.37395  0.35852  1.0000
  C   C163      1.0  0.52917  0.38522  0.43214  1.0000
  C   C164      1.0  0.54928  0.40637  0.41798  1.0000
  C   C165      1.0  0.55523  0.41652  0.33246  1.0000
  C   C166      1.0  0.58053  0.45843  0.35608  1.0000
  C   C167      1.0  0.60267  0.47765  0.34754  1.0000
  H   H104      1.0  0.60566  0.49308  0.37172  1.0000
  H   H105      1.0  0.55992  0.41420  0.47106  1.0000
  N   N47       1.0  0.56384  0.46120  0.39454  1.0000
  H   H106      1.0  0.54825  0.44868  0.39986  1.0000
  H   H107      1.0  0.56687  0.47604  0.41593  1.0000
  N   N48       1.0  0.52366  0.37489  0.51770  1.0000
  O   O23       1.0  0.52124  0.38732  0.57381  1.0000
  O   O24       1.0  0.53876  0.37076  0.54546  1.0000
  C   C168      1.0  0.49573  0.35257  0.36788  1.0000
  H   H108      1.0  0.48296  0.35049  0.40696  1.0000
