data_image0
_chemical_formula_structural       C12H5CHCO4C3NH2NH2NHC6NH2NH2NHNHSiC12H10C5NH2NH2NHNH2NH2C12H5CHCO4C3NH2NH2NHC6NH2NH2NHNHSiC12H10C5NH2NH2NHNH2NH2C12H5CHCO4C3NH2NH2NHC6NH2NH2NHNHSiC12H10C5NH2NH2NHNH2NH2C12H5CHCO4C3NH2NH2NHC6NH2NH2NHNHSiC12H10C5NH2NH2NHNH2NH2
_chemical_formula_sum              "C160 H144 O16 N48 Si4"
_cell_length_a       29.6666
_cell_length_b       29.6647
_cell_length_c       15.0207
_cell_angle_alpha    90
_cell_angle_beta     90
_cell_angle_gamma    89.7638

_space_group_name_H-M_alt    "P 1"
_space_group_IT_number       1

loop_
  _space_group_symop_operation_xyz
  'x, y, z'

loop_
  _atom_site_type_symbol
  _atom_site_label
  _atom_site_symmetry_multiplicity
  _atom_site_fract_x
  _atom_site_fract_y
  _atom_site_fract_z
  _atom_site_occupancy
  C   C1        1.0  0.40164  0.48751  0.16417  1.0000
  C   C2        1.0  0.40832  0.45077  0.10520  1.0000
  C   C3        1.0  0.43593  0.45455  0.02949  1.0000
  C   C4        1.0  0.45746  0.49567  0.00874  1.0000
  C   C5        1.0  0.45076  0.03254  0.06737  1.0000
  C   C6        1.0  0.42374  0.02839  0.14372  1.0000
  C   C7        1.0  0.04338  0.99890  0.00636  1.0000
  C   C8        1.0  0.06456  0.04004  0.02858  1.0000
  C   C9        1.0  0.09289  0.04318  0.10328  1.0000
  C   C10       1.0  0.10081  0.00560  0.15933  1.0000
  C   C11       1.0  0.07951  0.46454  0.13724  1.0000
  C   C12       1.0  0.05137  0.46121  0.06229  1.0000
  H   H1        1.0  0.03517  0.43123  0.05184  1.0000
  H   H2        1.0  0.08313  0.43679  0.17702  1.0000
  H   H3        1.0  0.10771  0.07358  0.11609  1.0000
  H   H4        1.0  0.46726  0.06244  0.05793  1.0000
  H   H5        1.0  0.39324  0.42036  0.11664  1.0000
  C   C13       1.0  0.13229  0.00882  0.23093  1.0000
  H   H6        1.0  0.42150  0.05556  0.18530  1.0000
  C   C14       1.0  0.37088  0.48365  0.23717  1.0000
  O   O1        1.0  0.05353  0.35649  0.27472  1.0000
  O   O2        1.0  0.44332  0.14165  0.28149  1.0000
  O   O3        1.0  0.14134  0.05048  0.26349  1.0000
  O   O4        1.0  0.35718  0.44164  0.26025  1.0000
  C   C15       1.0  0.48314  0.29710  0.27684  1.0000
  C   C16       1.0  0.49450  0.27376  0.19695  1.0000
  C   C17       1.0  0.00481  0.22671  0.20154  1.0000
  N   N1        1.0  0.49528  0.29710  0.11838  1.0000
  H   H7        1.0  0.48792  0.32900  0.11521  1.0000
  H   H8        1.0  0.50655  0.28418  0.06358  1.0000
  N   N2        1.0  0.01107  0.20102  0.12683  1.0000
  H   H9        1.0  0.01789  0.16900  0.13009  1.0000
  H   H10       1.0  0.00465  0.21215  0.06765  1.0000
  N   N3        1.0  0.47656  0.34293  0.27494  1.0000
  H   H11       1.0  0.44602  0.35208  0.29008  1.0000
  C   C18       1.0  0.29811  0.51250  0.26221  1.0000
  C   C19       1.0  0.27513  0.50093  0.34224  1.0000
  C   C20       1.0  0.22822  0.49032  0.33800  1.0000
  C   C21       1.0  0.20739  0.48620  0.25292  1.0000
  C   C22       1.0  0.23140  0.49505  0.17251  1.0000
  C   C23       1.0  0.27574  0.51288  0.17812  1.0000
  N   N4        1.0  0.21236  0.48568  0.09148  1.0000
  H   H12       1.0  0.18327  0.47128  0.08607  1.0000
  H   H13       1.0  0.22986  0.48547  0.03705  1.0000
  N   N5        1.0  0.29673  0.53020  0.10445  1.0000
  H   H14       1.0  0.32565  0.54506  0.10838  1.0000
  H   H15       1.0  0.28026  0.53668  0.05026  1.0000
  N   N6        1.0  0.16265  0.47507  0.24739  1.0000
  H   H16       1.0  0.15705  0.44554  0.22170  1.0000
  N   N7        1.0  0.34390  0.51867  0.26334  1.0000
  H   H17       1.0  0.35334  0.54920  0.24941  1.0000
  Si  Si1       1.0  0.99990  0.49764  0.60309  1.0000
  C   C24       1.0  0.00122  0.45522  0.53061  1.0000
  C   C25       1.0  0.49768  0.04114  0.53328  1.0000
  C   C26       1.0  0.03469  0.04902  0.47573  1.0000
  C   C27       1.0  0.03051  0.07749  0.40141  1.0000
  C   C28       1.0  0.48925  0.09933  0.38168  1.0000
  C   C29       1.0  0.45230  0.09143  0.43923  1.0000
  C   C30       1.0  0.45628  0.06272  0.51330  1.0000
  C   C31       1.0  0.46378  0.44874  0.47347  1.0000
  C   C32       1.0  0.46736  0.42209  0.39643  1.0000
  C   C33       1.0  0.00821  0.40013  0.37380  1.0000
  C   C34       1.0  0.04547  0.40646  0.43146  1.0000
  C   C35       1.0  0.04226  0.43369  0.50781  1.0000
  H   H18       1.0  0.05782  0.08107  0.36053  1.0000
  H   H19       1.0  0.06480  0.03260  0.48468  1.0000
  H   H20       1.0  0.42177  0.10658  0.42809  1.0000
  H   H21       1.0  0.42783  0.05651  0.54967  1.0000
  H   H22       1.0  0.43389  0.46527  0.48436  1.0000
  H   H23       1.0  0.43980  0.42002  0.35593  1.0000
  H   H24       1.0  0.07588  0.39145  0.41847  1.0000
  H   H25       1.0  0.07103  0.43898  0.54378  1.0000
  H   H26       1.0  0.05823  0.06895  0.66020  1.0000
  H   H27       1.0  0.44132  0.42617  0.65892  1.0000
  C   C36       1.0  0.48534  0.13123  0.31096  1.0000
  C   C37       1.0  0.01161  0.36983  0.29987  1.0000
  C   C38       1.0  0.00898  0.20604  0.28676  1.0000
  C   C39       1.0  0.00074  0.23042  0.36703  1.0000
  C   C40       1.0  0.48309  0.27498  0.36122  1.0000
  N   N8        1.0  0.46617  0.29628  0.43505  1.0000
  H   H28       1.0  0.45996  0.28004  0.48956  1.0000
  H   H29       1.0  0.45134  0.32532  0.43111  1.0000
  N   N9        1.0  0.01048  0.21145  0.44802  1.0000
  H   H30       1.0  0.02484  0.18219  0.45332  1.0000
  H   H31       1.0  0.01113  0.22910  0.50225  1.0000
  N   N10       1.0  0.01909  0.16101  0.29283  1.0000
  H   H32       1.0  0.04913  0.15497  0.31612  1.0000
  N   N11       1.0  0.20284  0.48365  0.41292  1.0000
  H   H33       1.0  0.21407  0.48982  0.47209  1.0000
  H   H34       1.0  0.17094  0.47656  0.41000  1.0000
  N   N12       1.0  0.29872  0.50019  0.42053  1.0000
  H   H35       1.0  0.33048  0.50791  0.42344  1.0000
  H   H36       1.0  0.28607  0.48900  0.47555  1.0000
  C   C41       1.0  0.40164  0.98751  0.16417  1.0000
  C   C42       1.0  0.40832  0.95077  0.10520  1.0000
  C   C43       1.0  0.43592  0.95455  0.02949  1.0000
  C   C44       1.0  0.45746  0.99567  0.00874  1.0000
  C   C45       1.0  0.45076  0.53254  0.06737  1.0000
  C   C46       1.0  0.42374  0.52839  0.14372  1.0000
  C   C47       1.0  0.04338  0.49890  0.00636  1.0000
  C   C48       1.0  0.06456  0.54004  0.02858  1.0000
  C   C49       1.0  0.09289  0.54318  0.10328  1.0000
  C   C50       1.0  0.10081  0.50560  0.15933  1.0000
  C   C51       1.0  0.07951  0.96454  0.13724  1.0000
  C   C52       1.0  0.05137  0.96121  0.06229  1.0000
  H   H37       1.0  0.03517  0.93123  0.05184  1.0000
  H   H38       1.0  0.08313  0.93679  0.17702  1.0000
  H   H39       1.0  0.10771  0.57359  0.11609  1.0000
  H   H40       1.0  0.46726  0.56244  0.05793  1.0000
  H   H41       1.0  0.39324  0.92036  0.11664  1.0000
  C   C53       1.0  0.13228  0.50882  0.23093  1.0000
  H   H42       1.0  0.42150  0.55556  0.18530  1.0000
  C   C54       1.0  0.37088  0.98365  0.23717  1.0000
  O   O5        1.0  0.05353  0.85649  0.27472  1.0000
  O   O6        1.0  0.44333  0.64165  0.28149  1.0000
  O   O7        1.0  0.14134  0.55048  0.26349  1.0000
  O   O8        1.0  0.35718  0.94164  0.26025  1.0000
  C   C55       1.0  0.48314  0.79711  0.27684  1.0000
  C   C56       1.0  0.49450  0.77376  0.19695  1.0000
  C   C57       1.0  0.00480  0.72671  0.20154  1.0000
  N   N13       1.0  0.49528  0.79710  0.11838  1.0000
  H   H43       1.0  0.48792  0.82901  0.11521  1.0000
  H   H44       1.0  0.50655  0.78418  0.06358  1.0000
  N   N14       1.0  0.01107  0.70102  0.12683  1.0000
  H   H45       1.0  0.01789  0.66900  0.13009  1.0000
  H   H46       1.0  0.00465  0.71215  0.06765  1.0000
  N   N15       1.0  0.47656  0.84292  0.27494  1.0000
  H   H47       1.0  0.44602  0.85208  0.29008  1.0000
  C   C58       1.0  0.29811  0.01250  0.26221  1.0000
  C   C59       1.0  0.27513  0.00093  0.34224  1.0000
  C   C60       1.0  0.22822  0.99032  0.33800  1.0000
  C   C61       1.0  0.20739  0.98619  0.25292  1.0000
  C   C62       1.0  0.23140  0.99505  0.17251  1.0000
  C   C63       1.0  0.27574  0.01288  0.17812  1.0000
  N   N16       1.0  0.21236  0.98567  0.09148  1.0000
  H   H48       1.0  0.18327  0.97128  0.08607  1.0000
  H   H49       1.0  0.22987  0.98547  0.03705  1.0000
  N   N17       1.0  0.29673  0.03021  0.10445  1.0000
  H   H50       1.0  0.32565  0.04506  0.10838  1.0000
  H   H51       1.0  0.28026  0.03668  0.05026  1.0000
  N   N18       1.0  0.16265  0.97507  0.24739  1.0000
  H   H52       1.0  0.15705  0.94554  0.22170  1.0000
  N   N19       1.0  0.34390  0.01867  0.26334  1.0000
  H   H53       1.0  0.35334  0.04920  0.24941  1.0000
  Si  Si2       1.0  0.99990  0.99764  0.60309  1.0000
  C   C64       1.0  0.00122  0.95521  0.53061  1.0000
  C   C65       1.0  0.49767  0.54114  0.53328  1.0000
  C   C66       1.0  0.03469  0.54902  0.47573  1.0000
  C   C67       1.0  0.03051  0.57750  0.40141  1.0000
  C   C68       1.0  0.48925  0.59933  0.38168  1.0000
  C   C69       1.0  0.45230  0.59143  0.43923  1.0000
  C   C70       1.0  0.45628  0.56272  0.51330  1.0000
  C   C71       1.0  0.46378  0.94874  0.47348  1.0000
  C   C72       1.0  0.46736  0.92209  0.39643  1.0000
  C   C73       1.0  0.00821  0.90013  0.37380  1.0000
  C   C74       1.0  0.04547  0.90647  0.43146  1.0000
  C   C75       1.0  0.04226  0.93369  0.50781  1.0000
  H   H54       1.0  0.05782  0.58107  0.36053  1.0000
  H   H55       1.0  0.06481  0.53260  0.48468  1.0000
  H   H56       1.0  0.42177  0.60658  0.42809  1.0000
  H   H57       1.0  0.42783  0.55651  0.54967  1.0000
  H   H58       1.0  0.43389  0.96528  0.48436  1.0000
  H   H59       1.0  0.43980  0.92002  0.35593  1.0000
  H   H60       1.0  0.07588  0.89146  0.41847  1.0000
  H   H61       1.0  0.07103  0.93898  0.54378  1.0000
  H   H62       1.0  0.05822  0.56895  0.66020  1.0000
  H   H63       1.0  0.44132  0.92617  0.65892  1.0000
  C   C76       1.0  0.48533  0.63123  0.31096  1.0000
  C   C77       1.0  0.01161  0.86983  0.29987  1.0000
  C   C78       1.0  0.00898  0.70604  0.28676  1.0000
  C   C79       1.0  0.00074  0.73042  0.36703  1.0000
  C   C80       1.0  0.48310  0.77497  0.36122  1.0000
  N   N20       1.0  0.46617  0.79628  0.43505  1.0000
  H   H64       1.0  0.45996  0.78004  0.48956  1.0000
  H   H65       1.0  0.45133  0.82532  0.43111  1.0000
  N   N21       1.0  0.01048  0.71145  0.44802  1.0000
  H   H66       1.0  0.02484  0.68220  0.45332  1.0000
  H   H67       1.0  0.01113  0.72910  0.50225  1.0000
  N   N22       1.0  0.01909  0.66101  0.29283  1.0000
  H   H68       1.0  0.04914  0.65497  0.31612  1.0000
  N   N23       1.0  0.20284  0.98365  0.41292  1.0000
  H   H69       1.0  0.21407  0.98982  0.47209  1.0000
  H   H70       1.0  0.17094  0.97656  0.41000  1.0000
  N   N24       1.0  0.29872  0.00019  0.42053  1.0000
  H   H71       1.0  0.33048  0.00791  0.42344  1.0000
  H   H72       1.0  0.28607  0.98901  0.47555  1.0000
  C   C81       1.0  0.90163  0.48751  0.16417  1.0000
  C   C82       1.0  0.90832  0.45077  0.10520  1.0000
  C   C83       1.0  0.93593  0.45455  0.02949  1.0000
  C   C84       1.0  0.95746  0.49567  0.00874  1.0000
  C   C85       1.0  0.95076  0.03254  0.06737  1.0000
  C   C86       1.0  0.92374  0.02839  0.14372  1.0000
  C   C87       1.0  0.54338  0.99890  0.00636  1.0000
  C   C88       1.0  0.56456  0.04004  0.02858  1.0000
  C   C89       1.0  0.59289  0.04318  0.10328  1.0000
  C   C90       1.0  0.60081  0.00560  0.15933  1.0000
  C   C91       1.0  0.57951  0.46454  0.13724  1.0000
  C   C92       1.0  0.55137  0.46121  0.06229  1.0000
  H   H73       1.0  0.53517  0.43123  0.05184  1.0000
  H   H74       1.0  0.58313  0.43679  0.17702  1.0000
  H   H75       1.0  0.60771  0.07358  0.11609  1.0000
  H   H76       1.0  0.96726  0.06244  0.05793  1.0000
  H   H77       1.0  0.89324  0.42036  0.11664  1.0000
  C   C93       1.0  0.63228  0.00882  0.23093  1.0000
  H   H78       1.0  0.92150  0.05556  0.18530  1.0000
  C   C94       1.0  0.87088  0.48365  0.23717  1.0000
  O   O9        1.0  0.55353  0.35649  0.27472  1.0000
  O   O10       1.0  0.94332  0.14165  0.28149  1.0000
  O   O11       1.0  0.64134  0.05048  0.26349  1.0000
  O   O12       1.0  0.85718  0.44164  0.26025  1.0000
  C   C95       1.0  0.98314  0.29710  0.27684  1.0000
  C   C96       1.0  0.99450  0.27376  0.19695  1.0000
  C   C97       1.0  0.50480  0.22671  0.20154  1.0000
  N   N25       1.0  0.99528  0.29710  0.11838  1.0000
  H   H79       1.0  0.98792  0.32900  0.11521  1.0000
  H   H80       1.0  0.00655  0.28418  0.06358  1.0000
  N   N26       1.0  0.51107  0.20102  0.12683  1.0000
  H   H81       1.0  0.51789  0.16900  0.13009  1.0000
  H   H82       1.0  0.50465  0.21215  0.06765  1.0000
  N   N27       1.0  0.97656  0.34293  0.27494  1.0000
  H   H83       1.0  0.94602  0.35208  0.29008  1.0000
  C   C98       1.0  0.79811  0.51250  0.26221  1.0000
  C   C99       1.0  0.77513  0.50093  0.34224  1.0000
  C   C100      1.0  0.72822  0.49032  0.33800  1.0000
  C   C101      1.0  0.70739  0.48620  0.25292  1.0000
  C   C102      1.0  0.73140  0.49505  0.17251  1.0000
  C   C103      1.0  0.77574  0.51288  0.17812  1.0000
  N   N28       1.0  0.71236  0.48568  0.09148  1.0000
  H   H84       1.0  0.68327  0.47128  0.08607  1.0000
  H   H85       1.0  0.72986  0.48547  0.03705  1.0000
  N   N29       1.0  0.79673  0.53020  0.10445  1.0000
  H   H86       1.0  0.82565  0.54506  0.10838  1.0000
  H   H87       1.0  0.78025  0.53668  0.05026  1.0000
  N   N30       1.0  0.66265  0.47507  0.24739  1.0000
  H   H88       1.0  0.65705  0.44554  0.22170  1.0000
  N   N31       1.0  0.84390  0.51867  0.26334  1.0000
  H   H89       1.0  0.85334  0.54920  0.24941  1.0000
  Si  Si3       1.0  0.49990  0.49764  0.60309  1.0000
  C   C104      1.0  0.50123  0.45522  0.53061  1.0000
  C   C105      1.0  0.99767  0.04114  0.53328  1.0000
  C   C106      1.0  0.53469  0.04902  0.47573  1.0000
  C   C107      1.0  0.53051  0.07749  0.40141  1.0000
  C   C108      1.0  0.98925  0.09933  0.38168  1.0000
  C   C109      1.0  0.95230  0.09143  0.43923  1.0000
  C   C110      1.0  0.95628  0.06272  0.51330  1.0000
  C   C111      1.0  0.96378  0.44874  0.47347  1.0000
  C   C112      1.0  0.96736  0.42209  0.39643  1.0000
  C   C113      1.0  0.50821  0.40013  0.37380  1.0000
  C   C114      1.0  0.54547  0.40646  0.43146  1.0000
  C   C115      1.0  0.54226  0.43369  0.50781  1.0000
  H   H90       1.0  0.55782  0.08107  0.36053  1.0000
  H   H91       1.0  0.56480  0.03260  0.48468  1.0000
  H   H92       1.0  0.92177  0.10658  0.42809  1.0000
  H   H93       1.0  0.92783  0.05651  0.54967  1.0000
  H   H94       1.0  0.93389  0.46527  0.48436  1.0000
  H   H95       1.0  0.93980  0.42002  0.35593  1.0000
  H   H96       1.0  0.57588  0.39145  0.41847  1.0000
  H   H97       1.0  0.57103  0.43898  0.54378  1.0000
  H   H98       1.0  0.55822  0.06895  0.66020  1.0000
  H   H99       1.0  0.94133  0.42617  0.65892  1.0000
  C   C116      1.0  0.98533  0.13123  0.31096  1.0000
  C   C117      1.0  0.51161  0.36983  0.29987  1.0000
  C   C118      1.0  0.50898  0.20604  0.28676  1.0000
  C   C119      1.0  0.50074  0.23042  0.36703  1.0000
  C   C120      1.0  0.98310  0.27498  0.36122  1.0000
  N   N32       1.0  0.96617  0.29628  0.43505  1.0000
  H   H100      1.0  0.95996  0.28004  0.48956  1.0000
  H   H101      1.0  0.95133  0.32532  0.43111  1.0000
  N   N33       1.0  0.51048  0.21145  0.44802  1.0000
  H   H102      1.0  0.52484  0.18219  0.45332  1.0000
  H   H103      1.0  0.51113  0.22910  0.50225  1.0000
  N   N34       1.0  0.51908  0.16101  0.29283  1.0000
  H   H104      1.0  0.54914  0.15497  0.31612  1.0000
  N   N35       1.0  0.70284  0.48365  0.41292  1.0000
  H   H105      1.0  0.71407  0.48982  0.47209  1.0000
  H   H106      1.0  0.67094  0.47656  0.41000  1.0000
  N   N36       1.0  0.79872  0.50019  0.42053  1.0000
  H   H107      1.0  0.83048  0.50791  0.42344  1.0000
  H   H108      1.0  0.78607  0.48900  0.47555  1.0000
  C   C121      1.0  0.90164  0.98751  0.16417  1.0000
  C   C122      1.0  0.90832  0.95077  0.10520  1.0000
  C   C123      1.0  0.93592  0.95455  0.02949  1.0000
  C   C124      1.0  0.95746  0.99567  0.00874  1.0000
  C   C125      1.0  0.95076  0.53254  0.06737  1.0000
  C   C126      1.0  0.92374  0.52839  0.14372  1.0000
  C   C127      1.0  0.54338  0.49890  0.00636  1.0000
  C   C128      1.0  0.56456  0.54004  0.02858  1.0000
  C   C129      1.0  0.59289  0.54318  0.10328  1.0000
  C   C130      1.0  0.60081  0.50560  0.15933  1.0000
  C   C131      1.0  0.57951  0.96454  0.13724  1.0000
  C   C132      1.0  0.55137  0.96121  0.06229  1.0000
  H   H109      1.0  0.53517  0.93123  0.05184  1.0000
  H   H110      1.0  0.58313  0.93679  0.17702  1.0000
  H   H111      1.0  0.60771  0.57359  0.11609  1.0000
  H   H112      1.0  0.96726  0.56244  0.05793  1.0000
  H   H113      1.0  0.89324  0.92036  0.11664  1.0000
  C   C133      1.0  0.63228  0.50882  0.23093  1.0000
  H   H114      1.0  0.92150  0.55556  0.18530  1.0000
  C   C134      1.0  0.87088  0.98365  0.23717  1.0000
  O   O13       1.0  0.55353  0.85649  0.27472  1.0000
  O   O14       1.0  0.94332  0.64165  0.28149  1.0000
  O   O15       1.0  0.64134  0.55048  0.26349  1.0000
  O   O16       1.0  0.85718  0.94164  0.26025  1.0000
  C   C135      1.0  0.98314  0.79711  0.27684  1.0000
  C   C136      1.0  0.99450  0.77376  0.19695  1.0000
  C   C137      1.0  0.50480  0.72671  0.20154  1.0000
  N   N37       1.0  0.99528  0.79710  0.11838  1.0000
  H   H115      1.0  0.98792  0.82901  0.11521  1.0000
  H   H116      1.0  0.00655  0.78418  0.06358  1.0000
  N   N38       1.0  0.51107  0.70102  0.12683  1.0000
  H   H117      1.0  0.51789  0.66900  0.13009  1.0000
  H   H118      1.0  0.50465  0.71215  0.06765  1.0000
  N   N39       1.0  0.97656  0.84292  0.27494  1.0000
  H   H119      1.0  0.94602  0.85208  0.29008  1.0000
  C   C138      1.0  0.79811  0.01250  0.26221  1.0000
  C   C139      1.0  0.77512  0.00093  0.34224  1.0000
  C   C140      1.0  0.72822  0.99032  0.33800  1.0000
  C   C141      1.0  0.70739  0.98619  0.25292  1.0000
  C   C142      1.0  0.73140  0.99505  0.17251  1.0000
  C   C143      1.0  0.77574  0.01288  0.17812  1.0000
  N   N40       1.0  0.71236  0.98567  0.09148  1.0000
  H   H120      1.0  0.68327  0.97128  0.08607  1.0000
  H   H121      1.0  0.72986  0.98547  0.03705  1.0000
  N   N41       1.0  0.79673  0.03021  0.10445  1.0000
  H   H122      1.0  0.82565  0.04506  0.10838  1.0000
  H   H123      1.0  0.78026  0.03668  0.05026  1.0000
  N   N42       1.0  0.66265  0.97507  0.24739  1.0000
  H   H124      1.0  0.65705  0.94554  0.22170  1.0000
  N   N43       1.0  0.84390  0.01867  0.26334  1.0000
  H   H125      1.0  0.85334  0.04920  0.24941  1.0000
  Si  Si4       1.0  0.49990  0.99764  0.60309  1.0000
  C   C144      1.0  0.50122  0.95521  0.53061  1.0000
  C   C145      1.0  0.99768  0.54114  0.53328  1.0000
  C   C146      1.0  0.53469  0.54902  0.47573  1.0000
  C   C147      1.0  0.53051  0.57750  0.40141  1.0000
  C   C148      1.0  0.98925  0.59933  0.38168  1.0000
  C   C149      1.0  0.95230  0.59143  0.43923  1.0000
  C   C150      1.0  0.95628  0.56272  0.51330  1.0000
  C   C151      1.0  0.96378  0.94874  0.47348  1.0000
  C   C152      1.0  0.96736  0.92209  0.39643  1.0000
  C   C153      1.0  0.50821  0.90013  0.37380  1.0000
  C   C154      1.0  0.54547  0.90647  0.43146  1.0000
  C   C155      1.0  0.54226  0.93369  0.50781  1.0000
  H   H126      1.0  0.55782  0.58107  0.36053  1.0000
  H   H127      1.0  0.56480  0.53260  0.48468  1.0000
  H   H128      1.0  0.92177  0.60658  0.42809  1.0000
  H   H129      1.0  0.92782  0.55651  0.54967  1.0000
  H   H130      1.0  0.93389  0.96528  0.48436  1.0000
  H   H131      1.0  0.93980  0.92002  0.35593  1.0000
  H   H132      1.0  0.57588  0.89146  0.41847  1.0000
  H   H133      1.0  0.57103  0.93898  0.54378  1.0000
  H   H134      1.0  0.55822  0.56895  0.66020  1.0000
  H   H135      1.0  0.94132  0.92617  0.65892  1.0000
  C   C156      1.0  0.98533  0.63123  0.31096  1.0000
  C   C157      1.0  0.51161  0.86983  0.29987  1.0000
  C   C158      1.0  0.50898  0.70604  0.28676  1.0000
  C   C159      1.0  0.50074  0.73042  0.36703  1.0000
  C   C160      1.0  0.98309  0.77497  0.36122  1.0000
  N   N44       1.0  0.96617  0.79628  0.43505  1.0000
  H   H136      1.0  0.95996  0.78004  0.48956  1.0000
  H   H137      1.0  0.95134  0.82532  0.43111  1.0000
  N   N45       1.0  0.51048  0.71145  0.44802  1.0000
  H   H138      1.0  0.52484  0.68220  0.45332  1.0000
  H   H139      1.0  0.51113  0.72910  0.50225  1.0000
  N   N46       1.0  0.51909  0.66101  0.29283  1.0000
  H   H140      1.0  0.54913  0.65497  0.31612  1.0000
  N   N47       1.0  0.70284  0.98365  0.41292  1.0000
  H   H141      1.0  0.71407  0.98982  0.47209  1.0000
  H   H142      1.0  0.67094  0.97656  0.41000  1.0000
  N   N48       1.0  0.79872  0.00019  0.42053  1.0000
  H   H143      1.0  0.83048  0.00791  0.42344  1.0000
  H   H144      1.0  0.78607  0.98901  0.47555  1.0000
