data_image0
_chemical_formula_structural       C6H6N2C8H5CN2HNC8H5CN2HNC8H5CN2HNC2NC3H2NH2CHC2NC3H2NH2CHC2NC3H2NH2CHC2HC3NHNH2CHC2HC3NHNH2CHC2HC3NHNH2CHC12H5CNC2NHN2C10H6CNCN2C10H6CNCN2C10H6CNCN2C2HC3NHNH2CHC2HC3NHNH2CHC2HC3NHNH2CHC2NC3H2NH2CHC2NC3H2NH2CHC2NC3H2NH2CH
_chemical_formula_sum              "C156 H108 N48"
_cell_length_a       67.7201
_cell_length_b       67.73
_cell_length_c       14.9747
_cell_angle_alpha    90
_cell_angle_beta     90
_cell_angle_gamma    119.982

_space_group_name_H-M_alt    "P 1"
_space_group_IT_number       1

loop_
  _space_group_symop_operation_xyz
  'x, y, z'

loop_
  _atom_site_type_symbol
  _atom_site_label
  _atom_site_symmetry_multiplicity
  _atom_site_fract_x
  _atom_site_fract_y
  _atom_site_fract_z
  _atom_site_occupancy
  C   C1        1.0  0.96910  0.01933  0.33886  1.0000
  C   C2        1.0  0.93877  0.91229  0.32382  1.0000
  C   C3        1.0  0.94976  0.93624  0.32148  1.0000
  C   C4        1.0  0.94546  0.00714  0.35883  1.0000
  C   C5        1.0  0.93253  0.01818  0.36259  1.0000
  C   C6        1.0  0.94274  0.04166  0.34406  1.0000
  H   H1        1.0  0.92159  0.90299  0.31209  1.0000
  H   H2        1.0  0.94015  0.94363  0.30684  1.0000
  H   H3        1.0  0.93740  0.99008  0.37299  1.0000
  H   H4        1.0  0.91559  0.00897  0.37871  1.0000
  H   H5        1.0  0.08982  0.01868  0.31221  1.0000
  H   H6        1.0  0.04918  0.99659  0.30693  1.0000
  N   N1        1.0  0.97235  0.98516  0.33774  1.0000
  N   N2        1.0  0.93060  0.05204  0.35169  1.0000
  C   C7        1.0  0.45501  0.26375  0.33294  1.0000
  C   C8        1.0  0.36944  0.20538  0.30216  1.0000
  C   C9        1.0  0.34546  0.19406  0.29887  1.0000
  C   C10       1.0  0.48827  0.19160  0.35544  1.0000
  C   C11       1.0  0.47548  0.20270  0.35889  1.0000
  C   C12       1.0  0.47887  0.27442  0.34751  1.0000
  C   C13       1.0  0.49262  0.29824  0.34941  1.0000
  C   C14       1.0  0.48308  0.31231  0.33600  1.0000
  H   H7        1.0  0.33752  0.20306  0.28241  1.0000
  H   H8        1.0  0.48361  0.21933  0.37960  1.0000
  H   H9        1.0  0.50520  0.20049  0.37206  1.0000
  H   H10       1.0  0.48668  0.26501  0.35773  1.0000
  H   H11       1.0  0.50976  0.30523  0.36050  1.0000
  C   C15       1.0  0.44137  0.23949  0.33106  1.0000
  N   N3        1.0  0.45151  0.22657  0.33340  1.0000
  N   N4        1.0  0.41820  0.22815  0.32709  1.0000
  H   H12       1.0  0.37824  0.22240  0.28739  1.0000
  N   N5        1.0  0.49752  0.33452  0.33999  1.0000
  C   C16       1.0  0.72918  0.19157  0.33302  1.0000
  C   C17       1.0  0.78757  0.16437  0.30213  1.0000
  C   C18       1.0  0.79889  0.15170  0.29881  1.0000
  C   C19       1.0  0.80133  0.29692  0.35587  1.0000
  C   C20       1.0  0.79024  0.27304  0.35937  1.0000
  C   C21       1.0  0.71851  0.20475  0.34767  1.0000
  C   C22       1.0  0.69469  0.19469  0.34955  1.0000
  C   C23       1.0  0.68061  0.17110  0.33609  1.0000
  H   H13       1.0  0.78989  0.13477  0.28236  1.0000
  H   H14       1.0  0.77364  0.26454  0.38032  1.0000
  H   H15       1.0  0.79245  0.30496  0.37278  1.0000
  H   H16       1.0  0.72792  0.22197  0.35793  1.0000
  H   H17       1.0  0.68769  0.20484  0.36069  1.0000
  C   C24       1.0  0.75345  0.20218  0.33113  1.0000
  N   N6        1.0  0.76637  0.22523  0.33352  1.0000
  N   N7        1.0  0.76479  0.19035  0.32711  1.0000
  H   H18       1.0  0.77054  0.15615  0.28738  1.0000
  N   N8        1.0  0.65840  0.16333  0.34002  1.0000
  C   C25       1.0  0.80122  0.53780  0.33294  1.0000
  C   C26       1.0  0.82841  0.62336  0.30220  1.0000
  C   C27       1.0  0.84107  0.64734  0.29892  1.0000
  C   C28       1.0  0.69584  0.50460  0.35550  1.0000
  C   C29       1.0  0.71973  0.51738  0.35899  1.0000
  C   C30       1.0  0.78804  0.51395  0.34749  1.0000
  C   C31       1.0  0.79811  0.50019  0.34938  1.0000
  C   C32       1.0  0.82171  0.50971  0.33603  1.0000
  H   H19       1.0  0.85800  0.65527  0.28245  1.0000
  H   H20       1.0  0.72822  0.50926  0.37974  1.0000
  H   H21       1.0  0.68781  0.48768  0.37226  1.0000
  H   H22       1.0  0.77082  0.50614  0.35765  1.0000
  H   H23       1.0  0.78796  0.48304  0.36043  1.0000
  C   C33       1.0  0.79061  0.55145  0.33105  1.0000
  N   N9        1.0  0.76755  0.54132  0.33339  1.0000
  N   N10       1.0  0.80243  0.57462  0.32709  1.0000
  H   H24       1.0  0.83663  0.61456  0.28738  1.0000
  N   N11       1.0  0.82948  0.49526  0.33994  1.0000
  C   C34       1.0  0.15223  0.07899  0.30763  1.0000
  C   C35       1.0  0.16752  0.09431  0.24380  1.0000
  N   N12       1.0  0.19029  0.10472  0.25809  1.0000
  C   C36       1.0  0.20001  0.10134  0.33164  1.0000
  C   C37       1.0  0.23849  0.11228  0.26793  1.0000
  C   C38       1.0  0.26240  0.12531  0.28086  1.0000
  H   H25       1.0  0.27298  0.12429  0.23450  1.0000
  H   H26       1.0  0.16179  0.09759  0.18555  1.0000
  N   N13       1.0  0.23036  0.09873  0.19443  1.0000
  H   H27       1.0  0.21418  0.08841  0.18543  1.0000
  H   H28       1.0  0.24063  0.09805  0.15066  1.0000
  C   C39       1.0  0.12903  0.06679  0.28998  1.0000
  H   H29       1.0  0.12394  0.06136  0.22785  1.0000
  C   C40       1.0  0.91384  0.07337  0.30759  1.0000
  C   C41       1.0  0.89853  0.07338  0.24377  1.0000
  N   N14       1.0  0.88815  0.08576  0.25810  1.0000
  C   C42       1.0  0.89155  0.09887  0.33165  1.0000
  C   C43       1.0  0.88064  0.12643  0.26793  1.0000
  C   C44       1.0  0.86762  0.13732  0.28084  1.0000
  H   H30       1.0  0.86863  0.14891  0.23440  1.0000
  H   H31       1.0  0.89524  0.06437  0.18554  1.0000
  N   N15       1.0  0.89416  0.13179  0.19434  1.0000
  H   H32       1.0  0.90456  0.12601  0.18566  1.0000
  H   H33       1.0  0.89493  0.14282  0.15081  1.0000
  C   C45       1.0  0.92601  0.06234  0.28997  1.0000
  H   H34       1.0  0.93144  0.06266  0.22784  1.0000
  C   C46       1.0  0.91941  0.84056  0.30758  1.0000
  C   C47       1.0  0.91940  0.82524  0.24375  1.0000
  N   N16       1.0  0.90700  0.80248  0.25808  1.0000
  C   C48       1.0  0.89390  0.79279  0.33164  1.0000
  C   C49       1.0  0.86633  0.75433  0.26799  1.0000
  C   C50       1.0  0.85542  0.73042  0.28097  1.0000
  H   H35       1.0  0.84382  0.71985  0.23458  1.0000
  H   H36       1.0  0.92840  0.83095  0.18549  1.0000
  N   N17       1.0  0.86093  0.76247  0.19447  1.0000
  H   H37       1.0  0.86681  0.77865  0.18544  1.0000
  H   H38       1.0  0.84997  0.75222  0.15072  1.0000
  C   C51       1.0  0.93042  0.86375  0.28990  1.0000
  H   H39       1.0  0.93005  0.86884  0.22779  1.0000
  C   C52       1.0  0.55171  0.15516  0.26921  1.0000
  C   C53       1.0  0.53200  0.15718  0.27977  1.0000
  H   H40       1.0  0.52866  0.16616  0.23295  1.0000
  C   C54       1.0  0.57774  0.14397  0.34343  1.0000
  C   C55       1.0  0.61914  0.14351  0.33400  1.0000
  C   C56       1.0  0.60124  0.13134  0.27282  1.0000
  N   N18       1.0  0.58169  0.13218  0.27916  1.0000
  H   H41       1.0  0.60298  0.12251  0.22097  1.0000
  N   N19       1.0  0.56519  0.16469  0.19632  1.0000
  H   H42       1.0  0.56126  0.17237  0.15067  1.0000
  H   H43       1.0  0.57932  0.16453  0.18797  1.0000
  C   C57       1.0  0.64001  0.14452  0.32378  1.0000
  H   H44       1.0  0.64070  0.13125  0.29925  1.0000
  C   C58       1.0  0.83776  0.39681  0.26901  1.0000
  C   C59       1.0  0.83569  0.37507  0.27971  1.0000
  H   H45       1.0  0.82675  0.36275  0.23285  1.0000
  C   C60       1.0  0.84890  0.43400  0.34327  1.0000
  C   C61       1.0  0.84933  0.47584  0.33395  1.0000
  C   C62       1.0  0.86155  0.47014  0.27288  1.0000
  N   N20       1.0  0.86074  0.44978  0.27919  1.0000
  H   H46       1.0  0.87045  0.48077  0.22124  1.0000
  N   N21       1.0  0.82826  0.40077  0.19606  1.0000
  H   H47       1.0  0.82060  0.38917  0.15036  1.0000
  H   H48       1.0  0.82848  0.41508  0.18752  1.0000
  C   C63       1.0  0.84831  0.49569  0.32384  1.0000
  H   H49       1.0  0.86160  0.50966  0.29948  1.0000
  C   C64       1.0  0.59602  0.44118  0.26925  1.0000
  C   C65       1.0  0.61774  0.46088  0.27992  1.0000
  H   H50       1.0  0.63006  0.46426  0.23307  1.0000
  C   C66       1.0  0.55880  0.41515  0.34335  1.0000
  C   C67       1.0  0.51695  0.37376  0.33390  1.0000
  C   C68       1.0  0.52270  0.39166  0.27267  1.0000
  N   N22       1.0  0.54306  0.41121  0.27906  1.0000
  H   H51       1.0  0.51210  0.38993  0.22090  1.0000
  N   N23       1.0  0.59208  0.42772  0.19633  1.0000
  H   H52       1.0  0.60370  0.43167  0.15068  1.0000
  H   H53       1.0  0.57780  0.41361  0.18785  1.0000
  C   C69       1.0  0.49709  0.35292  0.32377  1.0000
  H   H54       1.0  0.48314  0.35222  0.29911  1.0000
  C   C70       1.0  0.97345  0.94983  0.33880  1.0000
  C   C71       1.0  0.04295  0.02367  0.33891  1.0000
  C   C72       1.0  0.98565  0.93838  0.35884  1.0000
  C   C73       1.0  0.97460  0.91442  0.36257  1.0000
  C   C74       1.0  0.95114  0.90116  0.34386  1.0000
  C   C75       1.0  0.96624  0.05403  0.32404  1.0000
  C   C76       1.0  0.97920  0.04302  0.32167  1.0000
  C   C77       1.0  0.05437  0.04730  0.35894  1.0000
  C   C78       1.0  0.07834  0.06023  0.36272  1.0000
  C   C79       1.0  0.09162  0.05003  0.34402  1.0000
  C   C80       1.0  0.08051  0.02654  0.32397  1.0000
  C   C81       1.0  0.05655  0.01358  0.32160  1.0000
  H   H55       1.0  0.98382  0.90669  0.37878  1.0000
  H   H56       1.0  0.99619  0.05263  0.30708  1.0000
  H   H57       1.0  0.97411  0.07120  0.31243  1.0000
  H   H58       1.0  0.04536  0.05534  0.37328  1.0000
  H   H59       1.0  0.08605  0.07715  0.37893  1.0000
  C   C82       1.0  0.01866  0.01042  0.33768  1.0000
  N   N24       1.0  0.00553  0.02042  0.33779  1.0000
  C   C83       1.0  0.98234  0.00828  0.33764  1.0000
  C   C84       1.0  0.98450  0.97411  0.33762  1.0000
  N   N25       1.0  0.00762  0.98724  0.33776  1.0000
  H   H60       1.0  0.00270  0.94738  0.37316  1.0000
  N   N26       1.0  0.11414  0.06219  0.35168  1.0000
  N   N27       1.0  0.94076  0.87864  0.35153  1.0000
  C   C85       1.0  0.45221  0.19145  0.33314  1.0000
  C   C86       1.0  0.38117  0.19351  0.32305  1.0000
  C   C87       1.0  0.33247  0.17064  0.31883  1.0000
  C   C88       1.0  0.34388  0.15858  0.33940  1.0000
  C   C89       1.0  0.36785  0.16985  0.34129  1.0000
  C   C90       1.0  0.44218  0.16844  0.30498  1.0000
  C   C91       1.0  0.45511  0.15736  0.30016  1.0000
  C   C92       1.0  0.47820  0.16879  0.32631  1.0000
  C   C93       1.0  0.45935  0.30202  0.32159  1.0000
  C   C94       1.0  0.44553  0.27806  0.32032  1.0000
  H   H61       1.0  0.33477  0.14145  0.35217  1.0000
  H   H62       1.0  0.37544  0.16047  0.35684  1.0000
  H   H63       1.0  0.42557  0.15976  0.28418  1.0000
  H   H64       1.0  0.44766  0.14100  0.27667  1.0000
  H   H65       1.0  0.45195  0.31184  0.31252  1.0000
  H   H66       1.0  0.42841  0.27120  0.30954  1.0000
  C   C95       1.0  0.43994  0.20347  0.33205  1.0000
  N   N28       1.0  0.41682  0.19302  0.32796  1.0000
  C   C96       1.0  0.40548  0.20493  0.32572  1.0000
  N   N29       1.0  0.49122  0.15947  0.31522  1.0000
  N   N30       1.0  0.30992  0.16005  0.31228  1.0000
  C   C97       1.0  0.80149  0.26104  0.33332  1.0000
  C   C98       1.0  0.79944  0.18796  0.32301  1.0000
  C   C99       1.0  0.82231  0.16211  0.31874  1.0000
  C   C100      1.0  0.83438  0.18558  0.33932  1.0000
  C   C101      1.0  0.82311  0.19829  0.34123  1.0000
  C   C102      1.0  0.82448  0.27401  0.30487  1.0000
  C   C103      1.0  0.83554  0.29801  0.30005  1.0000
  C   C104      1.0  0.82412  0.30966  0.32648  1.0000
  C   C105      1.0  0.69091  0.15766  0.32158  1.0000
  C   C106      1.0  0.71487  0.16778  0.32032  1.0000
  H   H67       1.0  0.85151  0.19360  0.35209  1.0000
  H   H68       1.0  0.83248  0.21524  0.35679  1.0000
  H   H69       1.0  0.83313  0.26607  0.28378  1.0000
  H   H70       1.0  0.85188  0.30692  0.27630  1.0000
  H   H71       1.0  0.68109  0.14045  0.31243  1.0000
  H   H72       1.0  0.72174  0.15754  0.30947  1.0000
  C   C107      1.0  0.78947  0.23676  0.33216  1.0000
  N   N31       1.0  0.79993  0.22409  0.32801  1.0000
  C   C108      1.0  0.78802  0.20084  0.32572  1.0000
  N   N32       1.0  0.83342  0.33200  0.31531  1.0000
  N   N33       1.0  0.83290  0.15016  0.31221  1.0000
  C   C109      1.0  0.73173  0.54064  0.33318  1.0000
  C   C110      1.0  0.80482  0.61165  0.32307  1.0000
  C   C111      1.0  0.83066  0.66034  0.31893  1.0000
  C   C112      1.0  0.80719  0.64895  0.33946  1.0000
  C   C113      1.0  0.79448  0.62498  0.34132  1.0000
  C   C114      1.0  0.71875  0.55068  0.30502  1.0000
  C   C115      1.0  0.69475  0.53776  0.30016  1.0000
  C   C116      1.0  0.68310  0.51467  0.32636  1.0000
  C   C117      1.0  0.83515  0.53344  0.32162  1.0000
  C   C118      1.0  0.82502  0.54727  0.32036  1.0000
  H   H73       1.0  0.79917  0.65807  0.35224  1.0000
  H   H74       1.0  0.77752  0.61741  0.35686  1.0000
  H   H75       1.0  0.72669  0.56727  0.28403  1.0000
  H   H76       1.0  0.68583  0.54520  0.27660  1.0000
  H   H77       1.0  0.85237  0.54083  0.31256  1.0000
  H   H78       1.0  0.83527  0.56438  0.30958  1.0000
  C   C119      1.0  0.75602  0.55290  0.33203  1.0000
  N   N34       1.0  0.76868  0.57602  0.32796  1.0000
  C   C120      1.0  0.79193  0.58735  0.32572  1.0000
  N   N35       1.0  0.66076  0.50166  0.31528  1.0000
  N   N36       1.0  0.84261  0.68289  0.31236  1.0000
  C   C121      1.0  0.18560  0.08619  0.39927  1.0000
  C   C122      1.0  0.16171  0.07533  0.38571  1.0000
  H   H79       1.0  0.15104  0.06382  0.43216  1.0000
  C   C123      1.0  0.22419  0.11333  0.33531  1.0000
  C   C124      1.0  0.27200  0.13875  0.35817  1.0000
  C   C125      1.0  0.25682  0.13901  0.42196  1.0000
  N   N37       1.0  0.23403  0.12668  0.40818  1.0000
  H   H80       1.0  0.26265  0.14826  0.47961  1.0000
  N   N38       1.0  0.19361  0.08093  0.47355  1.0000
  H   H81       1.0  0.18327  0.07012  0.51751  1.0000
  H   H82       1.0  0.20977  0.08680  0.48310  1.0000
  C   C126      1.0  0.29525  0.14992  0.37483  1.0000
  H   H83       1.0  0.30055  0.14992  0.43691  1.0000
  C   C127      1.0  0.90669  0.09957  0.39927  1.0000
  C   C128      1.0  0.91752  0.08651  0.38571  1.0000
  H   H84       1.0  0.92902  0.08732  0.43216  1.0000
  C   C129      1.0  0.87958  0.11108  0.33533  1.0000
  C   C130      1.0  0.85420  0.13353  0.35817  1.0000
  C   C131      1.0  0.85393  0.11809  0.42200  1.0000
  N   N39       1.0  0.86625  0.10760  0.40822  1.0000
  H   H85       1.0  0.84468  0.11469  0.47966  1.0000
  N   N40       1.0  0.91196  0.11283  0.47357  1.0000
  H   H86       1.0  0.92276  0.11327  0.51753  1.0000
  H   H87       1.0  0.90611  0.12313  0.48314  1.0000
  C   C132      1.0  0.84302  0.14560  0.37480  1.0000
  H   H88       1.0  0.84302  0.15091  0.43687  1.0000
  C   C133      1.0  0.89321  0.80723  0.39926  1.0000
  C   C134      1.0  0.90625  0.83111  0.38565  1.0000
  H   H89       1.0  0.90544  0.84179  0.43212  1.0000
  C   C135      1.0  0.88169  0.76862  0.33535  1.0000
  C   C136      1.0  0.85924  0.72080  0.35825  1.0000
  C   C137      1.0  0.87471  0.73597  0.42202  1.0000
  N   N41       1.0  0.88519  0.75876  0.40821  1.0000
  H   H90       1.0  0.87813  0.73013  0.47965  1.0000
  N   N42       1.0  0.87994  0.79924  0.47355  1.0000
  H   H91       1.0  0.87949  0.80960  0.51749  1.0000
  H   H92       1.0  0.86964  0.78309  0.48314  1.0000
  C   C138      1.0  0.84717  0.69756  0.37493  1.0000
  H   H93       1.0  0.84188  0.69226  0.43702  1.0000
  C   C139      1.0  0.51812  0.14908  0.35695  1.0000
  C   C140      1.0  0.52411  0.13787  0.42181  1.0000
  N   N43       1.0  0.54310  0.13626  0.41120  1.0000
  C   C141      1.0  0.55707  0.14434  0.33895  1.0000
  C   C142      1.0  0.59484  0.15626  0.40874  1.0000
  C   C143      1.0  0.61532  0.15552  0.40285  1.0000
  H   H94       1.0  0.62801  0.16456  0.44830  1.0000
  H   H95       1.0  0.51523  0.13221  0.48035  1.0000
  N   N44       1.0  0.59289  0.16928  0.47355  1.0000
  H   H96       1.0  0.57971  0.17130  0.47762  1.0000
  H   H97       1.0  0.60515  0.17779  0.51601  1.0000
  C   C144      1.0  0.50189  0.15524  0.37664  1.0000
  H   H98       1.0  0.50040  0.15890  0.43993  1.0000
  C   C145      1.0  0.84378  0.36929  0.35693  1.0000
  C   C146      1.0  0.85498  0.38648  0.42181  1.0000
  N   N45       1.0  0.85661  0.40709  0.41112  1.0000
  C   C147      1.0  0.84857  0.41298  0.33875  1.0000
  C   C148      1.0  0.83655  0.43877  0.40845  1.0000
  C   C149      1.0  0.83726  0.45997  0.40263  1.0000
  H   H99       1.0  0.82819  0.46360  0.44800  1.0000
  H   H100      1.0  0.86061  0.38325  0.48041  1.0000
  N   N46       1.0  0.82348  0.42376  0.47307  1.0000
  H   H101      1.0  0.82147  0.40857  0.47706  1.0000
  H   H102      1.0  0.81493  0.42748  0.51544  1.0000
  C   C150      1.0  0.83758  0.34689  0.37664  1.0000
  H   H103      1.0  0.83394  0.34178  0.43997  1.0000
  C   C151      1.0  0.62349  0.47475  0.35713  1.0000
  C   C152      1.0  0.60629  0.46876  0.42192  1.0000
  N   N47       1.0  0.58567  0.44978  0.41122  1.0000
  C   C153      1.0  0.57983  0.43583  0.33895  1.0000
  C   C154      1.0  0.55398  0.39805  0.40868  1.0000
  C   C155      1.0  0.53277  0.37759  0.40281  1.0000
  H   H104      1.0  0.52910  0.36491  0.44835  1.0000
  H   H105      1.0  0.60947  0.47768  0.48035  1.0000
  N   N48       1.0  0.56894  0.40002  0.47361  1.0000
  H   H106      1.0  0.58416  0.41315  0.47743  1.0000
  H   H107      1.0  0.56522  0.38773  0.51586  1.0000
  C   C156      1.0  0.64587  0.49101  0.37673  1.0000
  H   H108      1.0  0.65102  0.49248  0.44002  1.0000
