data_image0
_chemical_formula_structural       C2HN2C3HCNCNCNCN2C2HC3NHC5NH3C5NH3C3NH2C5H3NC5H3NC5H3C5NH3C5NH3NC5H3NC5H3C5NH3C5NH3C5NH3C5NH3NC5H3NC5H3C2H2NC5H3CNCNCNCNCNCNCNCNCNCNCNCNCNCNCNCNCNCNCNCNCNCNCNCN2C2NCNCNCNCNCNCN2C5H3NC5H3C5H3NC3H2C5NH3C5NH3NC5H3NC5H3C5NH3C5NH3NC5H3NC5H3NC5H3NC5H3C5NH3C5NH3C2H2C5NH3
_chemical_formula_sum              "C216 H108 N72"
_cell_length_a       31.6978
_cell_length_b       82.1902
_cell_length_c       14.8386
_cell_angle_alpha    90
_cell_angle_beta     90
_cell_angle_gamma    90

_space_group_name_H-M_alt    "P 1"
_space_group_IT_number       1

loop_
  _space_group_symop_operation_xyz
  'x, y, z'

loop_
  _atom_site_type_symbol
  _atom_site_label
  _atom_site_symmetry_multiplicity
  _atom_site_fract_x
  _atom_site_fract_y
  _atom_site_fract_z
  _atom_site_occupancy
  C   C1        1.0  0.05036  0.67464  0.25982  1.0000
  C   C2        1.0  0.02797  0.67356  0.34227  1.0000
  H   H1        1.0  0.03484  0.67528  0.19951  1.0000
  N   N1        1.0  0.05124  0.33767  0.26928  1.0000
  N   N2        1.0  0.00642  0.02314  0.26889  1.0000
  C   C3        1.0  0.00654  0.03967  0.26579  1.0000
  C   C4        1.0  0.00546  0.99672  0.34186  1.0000
  C   C5        1.0  0.00548  0.96213  0.34160  1.0000
  H   H2        1.0  0.00728  0.04533  0.20446  1.0000
  C   C6        1.0  0.04270  0.09081  0.34212  1.0000
  N   N3        1.0  0.04254  0.07426  0.34319  1.0000
  C   C7        1.0  0.00548  0.06589  0.34524  1.0000
  N   N4        1.0  0.00545  0.09894  0.34316  1.0000
  C   C8        1.0  0.00547  0.94497  0.34283  1.0000
  N   N5        1.0  0.04254  0.93660  0.34497  1.0000
  C   C9        1.0  0.04271  0.92006  0.34615  1.0000
  N   N6        1.0  0.00546  0.91193  0.34516  1.0000
  N   N7        1.0  0.05124  0.67326  0.41957  1.0000
  C   C10       1.0  0.02797  0.33733  0.34658  1.0000
  C   C11       1.0  0.05035  0.33620  0.42901  1.0000
  H   H3        1.0  0.03483  0.33551  0.48931  1.0000
  C   C12       1.0  0.00549  0.04873  0.34645  1.0000
  C   C13       1.0  0.00546  0.01414  0.34618  1.0000
  C   C14       1.0  0.00650  0.97120  0.42226  1.0000
  N   N8        1.0  0.00639  0.98773  0.41915  1.0000
  H   H4        1.0  0.00723  0.96554  0.48360  1.0000
  C   C15       1.0  0.61726  0.17514  0.34164  1.0000
  C   C16       1.0  0.59473  0.17534  0.25969  1.0000
  C   C17       1.0  0.55037  0.17441  0.25958  1.0000
  C   C18       1.0  0.52798  0.17360  0.34213  1.0000
  C   C19       1.0  0.41690  0.17416  0.26647  1.0000
  N   N9        1.0  0.45968  0.17351  0.26947  1.0000
  H   H5        1.0  0.40222  0.17445  0.20515  1.0000
  H   H6        1.0  0.61035  0.17651  0.19964  1.0000
  H   H7        1.0  0.53485  0.17482  0.19921  1.0000
  C   C20       1.0  0.39366  0.83575  0.34157  1.0000
  C   C21       1.0  0.41620  0.83552  0.25962  1.0000
  C   C22       1.0  0.46056  0.83647  0.25951  1.0000
  C   C23       1.0  0.48294  0.83731  0.34206  1.0000
  C   C24       1.0  0.59401  0.83672  0.26637  1.0000
  N   N10       1.0  0.55124  0.83738  0.26939  1.0000
  H   H8        1.0  0.60870  0.83643  0.20504  1.0000
  H   H9        1.0  0.40059  0.83430  0.19959  1.0000
  H   H10       1.0  0.47608  0.83600  0.19916  1.0000
  C   C25       1.0  0.11725  0.67513  0.34200  1.0000
  C   C26       1.0  0.09471  0.67560  0.26007  1.0000
  C   C27       1.0  0.91690  0.67387  0.26640  1.0000
  N   N11       1.0  0.95968  0.67325  0.26949  1.0000
  H   H11       1.0  0.90222  0.67400  0.20505  1.0000
  H   H12       1.0  0.11032  0.67700  0.20016  1.0000
  C   C28       1.0  0.89366  0.33575  0.34171  1.0000
  C   C29       1.0  0.91621  0.33532  0.25979  1.0000
  C   C30       1.0  0.96056  0.33629  0.25957  1.0000
  C   C31       1.0  0.98294  0.33732  0.34203  1.0000
  C   C32       1.0  0.09401  0.33704  0.26618  1.0000
  H   H13       1.0  0.10870  0.33695  0.20483  1.0000
  H   H14       1.0  0.90059  0.33396  0.19986  1.0000
  H   H15       1.0  0.97608  0.33568  0.19925  1.0000
  N   N12       1.0  0.20091  0.13914  0.26803  1.0000
  C   C33       1.0  0.23232  0.15036  0.26498  1.0000
  C   C34       1.0  0.14976  0.12166  0.34085  1.0000
  C   C35       1.0  0.13147  0.11656  0.25839  1.0000
  C   C36       1.0  0.09673  0.10587  0.25856  1.0000
  C   C37       1.0  0.08035  0.09987  0.34048  1.0000
  H   H16       1.0  0.14230  0.12085  0.19799  1.0000
  H   H17       1.0  0.08300  0.10275  0.19854  1.0000
  H   H18       1.0  0.24284  0.15433  0.20366  1.0000
  N   N13       1.0  0.80968  0.87191  0.26837  1.0000
  C   C38       1.0  0.77827  0.86069  0.26515  1.0000
  C   C39       1.0  0.86110  0.88924  0.34149  1.0000
  C   C40       1.0  0.87860  0.89476  0.25907  1.0000
  C   C41       1.0  0.91332  0.90546  0.25938  1.0000
  C   C42       1.0  0.93058  0.91099  0.34149  1.0000
  H   H19       1.0  0.86718  0.89077  0.19853  1.0000
  H   H20       1.0  0.92650  0.90887  0.19929  1.0000
  H   H21       1.0  0.76754  0.85684  0.20377  1.0000
  C   C43       1.0  0.76190  0.15667  0.34263  1.0000
  C   C44       1.0  0.77901  0.15107  0.26054  1.0000
  C   C45       1.0  0.81133  0.13931  0.26020  1.0000
  C   C46       1.0  0.82725  0.13311  0.34260  1.0000
  C   C47       1.0  0.91215  0.10550  0.26612  1.0000
  N   N14       1.0  0.87901  0.11595  0.26941  1.0000
  H   H22       1.0  0.92410  0.10223  0.20472  1.0000
  H   H23       1.0  0.76850  0.15568  0.20048  1.0000
  H   H24       1.0  0.82342  0.13561  0.19968  1.0000
  C   C48       1.0  0.24902  0.85421  0.34273  1.0000
  C   C49       1.0  0.23213  0.85994  0.26071  1.0000
  C   C50       1.0  0.19982  0.87171  0.26056  1.0000
  C   C51       1.0  0.18367  0.87777  0.34307  1.0000
  C   C52       1.0  0.09955  0.90579  0.26714  1.0000
  N   N15       1.0  0.13264  0.89530  0.27023  1.0000
  H   H25       1.0  0.08819  0.90936  0.20577  1.0000
  H   H26       1.0  0.24282  0.85544  0.20055  1.0000
  H   H27       1.0  0.18788  0.87550  0.20009  1.0000
  N   N16       1.0  0.70187  0.63874  0.26810  1.0000
  C   C53       1.0  0.73337  0.64993  0.26515  1.0000
  C   C54       1.0  0.64977  0.62164  0.34073  1.0000
  C   C55       1.0  0.63184  0.61639  0.25820  1.0000
  C   C56       1.0  0.59708  0.60571  0.25831  1.0000
  C   C57       1.0  0.58031  0.59989  0.34025  1.0000
  H   H28       1.0  0.64294  0.62058  0.19780  1.0000
  H   H29       1.0  0.58359  0.60248  0.19821  1.0000
  H   H30       1.0  0.74463  0.65361  0.20388  1.0000
  N   N17       1.0  0.30872  0.37231  0.26856  1.0000
  C   C58       1.0  0.27721  0.36112  0.26542  1.0000
  C   C59       1.0  0.36109  0.38925  0.34146  1.0000
  C   C60       1.0  0.37826  0.39491  0.25902  1.0000
  C   C61       1.0  0.41299  0.40561  0.25929  1.0000
  C   C62       1.0  0.43054  0.41102  0.34137  1.0000
  H   H31       1.0  0.36665  0.39100  0.19848  1.0000
  H   H32       1.0  0.42595  0.40912  0.19916  1.0000
  H   H33       1.0  0.26572  0.35757  0.20412  1.0000
  C   C63       1.0  0.26189  0.65666  0.34246  1.0000
  C   C64       1.0  0.28012  0.65150  0.26058  1.0000
  C   C65       1.0  0.31237  0.63972  0.26030  1.0000
  C   C66       1.0  0.32724  0.63310  0.34260  1.0000
  C   C67       1.0  0.41250  0.60565  0.26633  1.0000
  N   N18       1.0  0.37934  0.61609  0.26955  1.0000
  H   H34       1.0  0.42471  0.60250  0.20498  1.0000
  H   H35       1.0  0.27039  0.65641  0.20067  1.0000
  H   H36       1.0  0.32525  0.63634  0.19995  1.0000
  C   C68       1.0  0.74903  0.35423  0.34257  1.0000
  C   C69       1.0  0.73113  0.35956  0.26071  1.0000
  C   C70       1.0  0.69887  0.37134  0.26060  1.0000
  C   C71       1.0  0.68367  0.37778  0.34305  1.0000
  C   C72       1.0  0.59922  0.40565  0.26722  1.0000
  N   N19       1.0  0.63233  0.39518  0.27028  1.0000
  H   H37       1.0  0.58763  0.40912  0.20587  1.0000
  H   H38       1.0  0.74111  0.35478  0.20065  1.0000
  H   H39       1.0  0.68622  0.37485  0.20025  1.0000
  C   C73       1.0  0.28163  0.21356  0.34240  1.0000
  C   C74       1.0  0.27579  0.22190  0.26030  1.0000
  C   C75       1.0  0.26518  0.23853  0.26022  1.0000
  C   C76       1.0  0.26058  0.24700  0.34282  1.0000
  C   C77       1.0  0.23460  0.28859  0.26691  1.0000
  N   N20       1.0  0.24469  0.27255  0.26996  1.0000
  H   H40       1.0  0.23047  0.29405  0.20561  1.0000
  H   H41       1.0  0.27964  0.21599  0.20011  1.0000
  H   H42       1.0  0.26129  0.24430  0.19974  1.0000
  C   C78       1.0  0.72932  0.79731  0.34242  1.0000
  C   C79       1.0  0.73520  0.78899  0.26031  1.0000
  C   C80       1.0  0.74581  0.77236  0.26021  1.0000
  C   C81       1.0  0.75037  0.76388  0.34279  1.0000
  C   C82       1.0  0.77636  0.72229  0.26682  1.0000
  N   N21       1.0  0.76628  0.73833  0.26990  1.0000
  H   H43       1.0  0.78052  0.71684  0.20552  1.0000
  H   H44       1.0  0.73135  0.79490  0.20013  1.0000
  H   H45       1.0  0.74970  0.76659  0.19971  1.0000
  N   N22       1.0  0.74429  0.23837  0.26847  1.0000
  C   C83       1.0  0.73418  0.22234  0.26540  1.0000
  C   C84       1.0  0.76054  0.26389  0.34135  1.0000
  C   C85       1.0  0.76548  0.27234  0.25875  1.0000
  C   C86       1.0  0.77614  0.28896  0.25885  1.0000
  C   C87       1.0  0.78162  0.29733  0.34096  1.0000
  H   H46       1.0  0.76190  0.26654  0.19825  1.0000
  H   H47       1.0  0.78028  0.29485  0.19867  1.0000
  H   H48       1.0  0.72975  0.21691  0.20412  1.0000
  N   N23       1.0  0.26661  0.77251  0.26839  1.0000
  C   C88       1.0  0.27674  0.78854  0.26532  1.0000
  C   C89       1.0  0.25033  0.74699  0.34126  1.0000
  C   C90       1.0  0.24543  0.73855  0.25866  1.0000
  C   C91       1.0  0.23478  0.72192  0.25876  1.0000
  C   C92       1.0  0.22929  0.71356  0.34087  1.0000
  H   H49       1.0  0.24903  0.74434  0.19817  1.0000
  H   H50       1.0  0.23067  0.71603  0.19858  1.0000
  H   H51       1.0  0.28118  0.79397  0.20406  1.0000
  C   C93       1.0  0.00452  0.98799  0.25948  1.0000
  C   C94       1.0  0.00444  0.97084  0.25966  1.0000
  H   H52       1.0  0.00375  0.99394  0.19897  1.0000
  H   H53       1.0  0.00370  0.96475  0.19948  1.0000
  N   N24       1.0  0.50666  0.52314  0.26891  1.0000
  C   C95       1.0  0.50679  0.53967  0.26581  1.0000
  C   C96       1.0  0.50553  0.49673  0.34187  1.0000
  C   C97       1.0  0.50451  0.48800  0.25948  1.0000
  C   C98       1.0  0.50441  0.47084  0.25966  1.0000
  C   C99       1.0  0.50553  0.46214  0.34160  1.0000
  H   H54       1.0  0.50366  0.49395  0.19898  1.0000
  H   H55       1.0  0.50360  0.46476  0.19949  1.0000
  H   H56       1.0  0.50766  0.54533  0.20449  1.0000
  C   C100      1.0  0.35002  0.17810  0.34571  1.0000
  N   N25       1.0  0.32128  0.16581  0.34581  1.0000
  C   C101      1.0  0.27925  0.16919  0.34462  1.0000
  N   N26       1.0  0.26615  0.18493  0.34355  1.0000
  C   C102      1.0  0.29467  0.19726  0.34351  1.0000
  N   N27       1.0  0.33646  0.19376  0.34472  1.0000
  C   C103      1.0  0.66089  0.83276  0.34555  1.0000
  N   N28       1.0  0.68961  0.84506  0.34562  1.0000
  C   C104      1.0  0.73165  0.84169  0.34448  1.0000
  N   N29       1.0  0.74476  0.82594  0.34355  1.0000
  C   C105      1.0  0.71626  0.81361  0.34350  1.0000
  N   N30       1.0  0.67447  0.81711  0.34465  1.0000
  C   C106      1.0  0.66090  0.17811  0.34321  1.0000
  N   N31       1.0  0.68964  0.16581  0.34301  1.0000
  C   C107      1.0  0.73168  0.16919  0.34404  1.0000
  N   N32       1.0  0.74477  0.18494  0.34499  1.0000
  C   C108      1.0  0.71626  0.19726  0.34517  1.0000
  N   N33       1.0  0.67447  0.19376  0.34414  1.0000
  C   C109      1.0  0.35002  0.83278  0.34307  1.0000
  N   N34       1.0  0.32128  0.84507  0.34290  1.0000
  C   C110      1.0  0.27925  0.84169  0.34396  1.0000
  N   N35       1.0  0.26616  0.82594  0.34497  1.0000
  C   C111      1.0  0.29467  0.81362  0.34510  1.0000
  N   N36       1.0  0.33647  0.81712  0.34403  1.0000
  C   C112      1.0  0.85002  0.67809  0.34534  1.0000
  N   N37       1.0  0.82128  0.66580  0.34461  1.0000
  C   C113      1.0  0.77924  0.66917  0.34469  1.0000
  N   N38       1.0  0.76615  0.68492  0.34595  1.0000
  C   C114      1.0  0.79466  0.69725  0.34647  1.0000
  N   N39       1.0  0.83646  0.69375  0.34653  1.0000
  C   C115      1.0  0.16088  0.33278  0.34513  1.0000
  N   N40       1.0  0.18961  0.34507  0.34437  1.0000
  C   C116      1.0  0.23166  0.34170  0.34459  1.0000
  N   N41       1.0  0.24475  0.32595  0.34604  1.0000
  C   C117      1.0  0.21625  0.31362  0.34655  1.0000
  N   N42       1.0  0.17446  0.31712  0.34647  1.0000
  C   C118      1.0  0.16089  0.67810  0.34363  1.0000
  N   N43       1.0  0.18963  0.66580  0.34425  1.0000
  C   C119      1.0  0.23167  0.66918  0.34390  1.0000
  N   N44       1.0  0.24475  0.68493  0.34246  1.0000
  C   C120      1.0  0.21625  0.69725  0.34210  1.0000
  N   N45       1.0  0.17445  0.69375  0.34232  1.0000
  C   C121      1.0  0.85003  0.33278  0.34340  1.0000
  N   N46       1.0  0.82129  0.34508  0.34401  1.0000
  C   C122      1.0  0.77925  0.34170  0.34383  1.0000
  N   N47       1.0  0.76616  0.32595  0.34259  1.0000
  C   C123      1.0  0.79466  0.31363  0.34218  1.0000
  N   N48       1.0  0.83646  0.31713  0.34222  1.0000
  N   N49       1.0  0.96840  0.07426  0.34651  1.0000
  C   C124      1.0  0.96822  0.09081  0.34530  1.0000
  C   C125      1.0  0.96822  0.92005  0.34295  1.0000
  N   N50       1.0  0.96840  0.93660  0.34162  1.0000
  C   C126      1.0  0.54268  0.59082  0.34182  1.0000
  N   N51       1.0  0.54255  0.57428  0.34289  1.0000
  C   C127      1.0  0.50550  0.56590  0.34526  1.0000
  N   N52       1.0  0.46841  0.57426  0.34683  1.0000
  C   C128      1.0  0.46820  0.59080  0.34561  1.0000
  N   N53       1.0  0.50542  0.59894  0.34317  1.0000
  C   C129      1.0  0.46821  0.42007  0.34270  1.0000
  N   N54       1.0  0.46841  0.43661  0.34138  1.0000
  C   C130      1.0  0.50550  0.44498  0.34282  1.0000
  N   N55       1.0  0.54256  0.43660  0.34518  1.0000
  C   C131      1.0  0.54269  0.42005  0.34637  1.0000
  N   N56       1.0  0.50544  0.41194  0.34515  1.0000
  N   N57       1.0  0.55125  0.17356  0.41944  1.0000
  C   C132      1.0  0.59403  0.17419  0.42245  1.0000
  C   C133      1.0  0.48296  0.17360  0.34678  1.0000
  C   C134      1.0  0.46056  0.17446  0.42931  1.0000
  C   C135      1.0  0.41620  0.17539  0.42920  1.0000
  C   C136      1.0  0.39366  0.17514  0.34726  1.0000
  H   H57       1.0  0.47609  0.17491  0.48967  1.0000
  H   H58       1.0  0.40059  0.17660  0.48922  1.0000
  H   H59       1.0  0.60870  0.17455  0.48377  1.0000
  N   N58       1.0  0.45967  0.83738  0.41936  1.0000
  C   C137      1.0  0.41689  0.83674  0.42236  1.0000
  C   C138      1.0  0.52797  0.83730  0.34670  1.0000
  C   C139      1.0  0.55036  0.83644  0.42924  1.0000
  C   C140      1.0  0.59472  0.83549  0.42912  1.0000
  C   C141      1.0  0.61725  0.83572  0.34716  1.0000
  H   H60       1.0  0.53483  0.83597  0.48959  1.0000
  H   H61       1.0  0.61034  0.83426  0.48913  1.0000
  H   H62       1.0  0.40221  0.83640  0.48369  1.0000
  C   C142      1.0  0.09401  0.67389  0.42267  1.0000
  C   C143      1.0  0.98295  0.67356  0.34680  1.0000
  C   C144      1.0  0.96055  0.67464  0.42924  1.0000
  C   C145      1.0  0.91620  0.67561  0.42898  1.0000
  C   C146      1.0  0.89366  0.67512  0.34707  1.0000
  H   H63       1.0  0.97607  0.67531  0.48954  1.0000
  H   H64       1.0  0.90059  0.67702  0.48888  1.0000
  H   H65       1.0  0.10870  0.67403  0.48402  1.0000
  N   N59       1.0  0.95967  0.33758  0.41935  1.0000
  C   C147      1.0  0.91690  0.33695  0.42242  1.0000
  C   C148      1.0  0.09470  0.33522  0.42875  1.0000
  C   C149      1.0  0.11724  0.33574  0.34684  1.0000
  H   H66       1.0  0.11031  0.33379  0.48864  1.0000
  H   H67       1.0  0.90221  0.33678  0.48376  1.0000
  C   C150      1.0  0.24903  0.15666  0.34579  1.0000
  C   C151      1.0  0.23220  0.15090  0.42780  1.0000
  C   C152      1.0  0.19987  0.13914  0.42790  1.0000
  C   C153      1.0  0.18364  0.13312  0.34536  1.0000
  C   C154      1.0  0.09947  0.10512  0.42119  1.0000
  N   N60       1.0  0.13255  0.11560  0.41815  1.0000
  H   H68       1.0  0.08806  0.10155  0.48255  1.0000
  H   H69       1.0  0.24296  0.15536  0.48797  1.0000
  H   H70       1.0  0.18800  0.13531  0.48836  1.0000
  C   C155      1.0  0.76186  0.85422  0.34584  1.0000
  C   C156      1.0  0.77897  0.85982  0.42792  1.0000
  C   C157      1.0  0.81129  0.87158  0.42821  1.0000
  C   C158      1.0  0.82723  0.87777  0.34579  1.0000
  C   C159      1.0  0.91226  0.90533  0.42218  1.0000
  N   N61       1.0  0.87910  0.89488  0.41893  1.0000
  H   H71       1.0  0.92426  0.90857  0.48356  1.0000
  H   H72       1.0  0.76845  0.85523  0.48799  1.0000
  H   H73       1.0  0.82338  0.87528  0.48873  1.0000
  N   N62       1.0  0.80969  0.13896  0.42004  1.0000
  C   C160      1.0  0.77829  0.15018  0.42330  1.0000
  C   C161      1.0  0.86111  0.12163  0.34686  1.0000
  C   C162      1.0  0.87870  0.11615  0.42926  1.0000
  C   C163      1.0  0.91342  0.10544  0.42890  1.0000
  C   C164      1.0  0.93057  0.09987  0.34677  1.0000
  H   H74       1.0  0.86737  0.12017  0.48981  1.0000
  H   H75       1.0  0.92667  0.10206  0.48896  1.0000
  H   H76       1.0  0.76753  0.15402  0.48469  1.0000
  N   N63       1.0  0.20102  0.87179  0.42042  1.0000
  C   C165      1.0  0.23241  0.86056  0.42352  1.0000
  C   C166      1.0  0.14980  0.88924  0.34755  1.0000
  C   C167      1.0  0.13147  0.89432  0.42999  1.0000
  C   C168      1.0  0.09670  0.90500  0.42977  1.0000
  C   C169      1.0  0.08036  0.91100  0.34783  1.0000
  H   H77       1.0  0.14222  0.89000  0.49038  1.0000
  H   H78       1.0  0.08291  0.90809  0.48976  1.0000
  H   H79       1.0  0.24301  0.85663  0.48484  1.0000
  C   C170      1.0  0.74903  0.65665  0.34590  1.0000
  C   C171      1.0  0.73116  0.65130  0.42775  1.0000
  C   C172      1.0  0.69888  0.63952  0.42781  1.0000
  C   C173      1.0  0.68364  0.63311  0.34532  1.0000
  C   C174      1.0  0.59910  0.60527  0.42104  1.0000
  N   N64       1.0  0.63222  0.61574  0.41803  1.0000
  H   H80       1.0  0.58744  0.60182  0.48238  1.0000
  H   H81       1.0  0.74117  0.65605  0.48783  1.0000
  H   H82       1.0  0.68627  0.63599  0.48815  1.0000
  C   C175      1.0  0.26187  0.35423  0.34599  1.0000
  C   C176      1.0  0.28006  0.35940  0.42787  1.0000
  C   C177      1.0  0.31231  0.37119  0.42814  1.0000
  C   C178      1.0  0.32724  0.37778  0.34583  1.0000
  C   C179      1.0  0.41255  0.40521  0.42207  1.0000
  N   N65       1.0  0.37938  0.39477  0.41885  1.0000
  H   H83       1.0  0.42477  0.40835  0.48340  1.0000
  H   H84       1.0  0.27028  0.35451  0.48781  1.0000
  H   H85       1.0  0.32516  0.37458  0.48850  1.0000
  N   N66       1.0  0.30866  0.63855  0.41986  1.0000
  C   C180      1.0  0.27717  0.64974  0.42301  1.0000
  C   C181      1.0  0.36107  0.62161  0.34695  1.0000
  C   C182      1.0  0.37827  0.61596  0.42939  1.0000
  C   C183      1.0  0.41300  0.60526  0.42910  1.0000
  C   C184      1.0  0.43052  0.59985  0.34701  1.0000
  H   H86       1.0  0.36668  0.61989  0.48993  1.0000
  H   H87       1.0  0.42599  0.60177  0.48923  1.0000
  H   H88       1.0  0.26561  0.65326  0.48430  1.0000
  N   N67       1.0  0.70193  0.37217  0.42029  1.0000
  C   C185      1.0  0.73341  0.36097  0.42329  1.0000
  C   C186      1.0  0.64981  0.38925  0.34760  1.0000
  C   C187      1.0  0.63180  0.39447  0.43010  1.0000
  C   C188      1.0  0.59702  0.40514  0.42994  1.0000
  C   C189      1.0  0.58033  0.41099  0.34797  1.0000
  H   H89       1.0  0.64279  0.39024  0.49050  1.0000
  H   H90       1.0  0.58344  0.40833  0.49001  1.0000
  H   H91       1.0  0.74473  0.35732  0.48456  1.0000
  N   N68       1.0  0.26668  0.23837  0.42023  1.0000
  C   C190      1.0  0.27680  0.22234  0.42329  1.0000
  C   C191      1.0  0.25035  0.26389  0.34738  1.0000
  C   C192      1.0  0.24532  0.27232  0.42999  1.0000
  C   C193      1.0  0.23466  0.28894  0.42991  1.0000
  C   C194      1.0  0.22930  0.29732  0.34780  1.0000
  H   H92       1.0  0.24885  0.26652  0.49048  1.0000
  H   H93       1.0  0.23048  0.29482  0.49009  1.0000
  H   H94       1.0  0.28128  0.21692  0.48455  1.0000
  N   N69       1.0  0.74424  0.77250  0.42021  1.0000
  C   C195      1.0  0.73412  0.78853  0.42329  1.0000
  C   C196      1.0  0.76058  0.74699  0.34732  1.0000
  C   C197      1.0  0.76556  0.73855  0.42992  1.0000
  C   C198      1.0  0.77621  0.72192  0.42983  1.0000
  C   C199      1.0  0.78162  0.71355  0.34771  1.0000
  H   H95       1.0  0.76203  0.74435  0.49042  1.0000
  H   H96       1.0  0.78039  0.71604  0.48999  1.0000
  H   H97       1.0  0.72961  0.79395  0.48455  1.0000
  C   C200      1.0  0.72930  0.21356  0.34627  1.0000
  C   C201      1.0  0.73507  0.22190  0.42838  1.0000
  C   C202      1.0  0.74568  0.23853  0.42848  1.0000
  C   C203      1.0  0.75033  0.24700  0.34588  1.0000
  C   C204      1.0  0.77640  0.28858  0.42185  1.0000
  N   N70       1.0  0.76630  0.27255  0.41877  1.0000
  H   H98       1.0  0.78061  0.29403  0.48315  1.0000
  H   H99       1.0  0.73117  0.21600  0.48856  1.0000
  H   H100      1.0  0.74950  0.24431  0.48897  1.0000
  C   C205      1.0  0.28164  0.79732  0.34621  1.0000
  C   C206      1.0  0.27584  0.78898  0.42832  1.0000
  C   C207      1.0  0.26521  0.77235  0.42840  1.0000
  C   C208      1.0  0.26056  0.76388  0.34580  1.0000
  C   C209      1.0  0.23445  0.72231  0.42175  1.0000
  N   N71       1.0  0.24454  0.73834  0.41868  1.0000
  H   H101      1.0  0.23023  0.71686  0.48304  1.0000
  H   H102      1.0  0.27973  0.79488  0.48850  1.0000
  H   H103      1.0  0.26137  0.76658  0.48889  1.0000
  C   C210      1.0  0.00443  0.04003  0.42838  1.0000
  C   C211      1.0  0.00450  0.02287  0.42856  1.0000
  H   H104      1.0  0.00367  0.04611  0.48857  1.0000
  H   H105      1.0  0.00371  0.01692  0.48906  1.0000
  C   C212      1.0  0.50554  0.54874  0.34646  1.0000
  C   C213      1.0  0.50428  0.54003  0.42838  1.0000
  C   C214      1.0  0.50439  0.52287  0.42856  1.0000
  C   C215      1.0  0.50553  0.51415  0.34619  1.0000
  C   C216      1.0  0.50665  0.47120  0.42225  1.0000
  N   N72       1.0  0.50654  0.48773  0.41914  1.0000
  H   H106      1.0  0.50743  0.46554  0.48358  1.0000
  H   H107      1.0  0.50338  0.54612  0.48856  1.0000
  H   H108      1.0  0.50345  0.51692  0.48905  1.0000
