data_image0
_chemical_formula_structural       C2HCH2C2NHC2NO2C4NOCH3CHCHNHC2H2OC2NHC3H2C3HC3H3C3HC3H3C3HNO2C5H2NH2NO2C2HNH2C5H2NH2NO2C5H2NH2NO2C5H2NH2NO2C3NH2C3NC3NH4C3NC3NH4C3HNHC3HC4HN2H2O2C4HNO2C3HC4HN2H2O2C3HC4HN2H2O2C3HC4HN2H2O2
_chemical_formula_sum              "C108 H72 N30 O24"
_cell_length_a       31.9303
_cell_length_b       31.9304
_cell_length_c       14.7884
_cell_angle_alpha    90
_cell_angle_beta     90
_cell_angle_gamma    120

_space_group_name_H-M_alt    "P 1"
_space_group_IT_number       1

loop_
  _space_group_symop_operation_xyz
  'x, y, z'

loop_
  _atom_site_type_symbol
  _atom_site_label
  _atom_site_symmetry_multiplicity
  _atom_site_fract_x
  _atom_site_fract_y
  _atom_site_fract_z
  _atom_site_occupancy
  C   C1        1.0  0.03766  0.52064  0.34825  1.0000
  C   C2        1.0  0.06586  0.57212  0.33984  1.0000
  H   H1        1.0  0.04900  0.59175  0.33076  1.0000
  C   C3        1.0  0.06585  0.49733  0.35623  1.0000
  H   H2        1.0  0.04898  0.46076  0.36410  1.0000
  H   H3        1.0  0.10309  0.48000  0.19519  1.0000
  C   C4        1.0  0.11728  0.59880  0.34088  1.0000
  C   C5        1.0  0.15318  0.47756  0.27837  1.0000
  N   N1        1.0  0.12920  0.47283  0.19942  1.0000
  H   H4        1.0  0.13683  0.46112  0.14457  1.0000
  C   C6        1.0  0.14307  0.65085  0.33363  1.0000
  C   C7        1.0  0.17119  0.67494  0.25599  1.0000
  N   N2        1.0  0.16464  0.65334  0.16953  1.0000
  O   O1        1.0  0.17471  0.62011  0.16626  1.0000
  O   O2        1.0  0.12225  0.63743  0.14119  1.0000
  C   C8        1.0  0.11729  0.52201  0.35502  1.0000
  C   C9        1.0  0.14351  0.57358  0.34946  1.0000
  C   C10       1.0  0.14306  0.49545  0.35904  1.0000
  C   C11       1.0  0.17053  0.49973  0.43783  1.0000
  N   N3        1.0  0.16041  0.51655  0.51916  1.0000
  O   O3        1.0  0.14899  0.48590  0.58132  1.0000
  C   C12       1.0  0.15118  0.67866  0.41280  1.0000
  H   H5        1.0  0.13081  0.66193  0.46896  1.0000
  H   H6        1.0  0.16452  0.73771  0.54149  1.0000
  H   H7        1.0  0.21198  0.63355  0.35417  1.0000
  C   C13       1.0  0.19095  0.46617  0.27818  1.0000
  H   H8        1.0  0.19757  0.45359  0.21942  1.0000
  C   C14       1.0  0.20979  0.72312  0.26379  1.0000
  H   H9        1.0  0.23226  0.73712  0.20919  1.0000
  N   N4        1.0  0.19317  0.59859  0.35151  1.0000
  H   H10       1.0  0.21232  0.58282  0.34950  1.0000
  C   C15       1.0  0.22228  0.47511  0.35279  1.0000
  C   C16       1.0  0.21013  0.49132  0.43257  1.0000
  H   H11       1.0  0.23235  0.50050  0.48763  1.0000
  H   H12       1.0  0.22988  0.42350  0.49613  1.0000
  O   O4        1.0  0.19562  0.55588  0.54540  1.0000
  C   C17       1.0  0.22099  0.75043  0.34520  1.0000
  C   C18       1.0  0.18760  0.72827  0.41835  1.0000
  N   N5        1.0  0.18876  0.75300  0.49422  1.0000
  H   H13       1.0  0.20797  0.78804  0.49615  1.0000
  C   C19       1.0  0.98385  0.49372  0.34823  1.0000
  C   C20       1.0  0.95565  0.44225  0.33969  1.0000
  C   C21       1.0  0.90423  0.41556  0.34073  1.0000
  H   H14       1.0  0.97252  0.42263  0.33058  1.0000
  H   H15       1.0  0.80953  0.38079  0.35395  1.0000
  C   C22       1.0  0.52421  0.49372  0.34823  1.0000
  C   C23       1.0  0.57569  0.51699  0.33973  1.0000
  C   C24       1.0  0.60238  0.49226  0.34080  1.0000
  H   H16       1.0  0.59531  0.55348  0.33062  1.0000
  C   C25       1.0  0.49730  0.52061  0.34822  1.0000
  C   C26       1.0  0.41913  0.52207  0.34080  1.0000
  C   C27       1.0  0.44582  0.49734  0.33978  1.0000
  H   H17       1.0  0.42619  0.46084  0.33078  1.0000
  H   H18       1.0  0.38438  0.58202  0.35393  1.0000
  H   H19       1.0  0.63714  0.43233  0.35417  1.0000
  C   C28       1.0  0.52418  0.03406  0.34823  1.0000
  C   C29       1.0  0.50090  0.06226  0.33980  1.0000
  C   C30       1.0  0.52564  0.11369  0.34079  1.0000
  H   H20       1.0  0.46441  0.04541  0.33077  1.0000
  C   C31       1.0  0.49728  0.98026  0.34823  1.0000
  C   C32       1.0  0.49582  0.90063  0.34078  1.0000
  C   C33       1.0  0.52056  0.95206  0.33971  1.0000
  H   H21       1.0  0.55704  0.96892  0.33060  1.0000
  H   H22       1.0  0.43589  0.80594  0.35416  1.0000
  H   H23       1.0  0.58559  0.20839  0.35385  1.0000
  C   C34       1.0  0.36708  0.49579  0.33361  1.0000
  C   C35       1.0  0.34297  0.49980  0.25597  1.0000
  C   C36       1.0  0.29479  0.49022  0.26375  1.0000
  H   H24       1.0  0.28079  0.49867  0.20913  1.0000
  N   N6        1.0  0.36456  0.51481  0.16948  1.0000
  O   O5        1.0  0.39778  0.55811  0.16614  1.0000
  O   O6        1.0  0.38046  0.48832  0.14119  1.0000
  C   C37       1.0  0.52210  0.87487  0.33333  1.0000
  C   C38       1.0  0.51798  0.84664  0.25582  1.0000
  C   C39       1.0  0.52752  0.80802  0.26371  1.0000
  C   C40       1.0  0.55175  0.72837  0.27819  1.0000
  C   C41       1.0  0.54042  0.67923  0.27835  1.0000
  H   H25       1.0  0.56440  0.74762  0.21948  1.0000
  H   H26       1.0  0.51911  0.78556  0.20909  1.0000
  N   N7        1.0  0.54522  0.66001  0.19942  1.0000
  H   H27       1.0  0.55691  0.67936  0.14457  1.0000
  H   H28       1.0  0.53804  0.62674  0.19517  1.0000
  N   N8        1.0  0.50294  0.85317  0.16934  1.0000
  O   O7        1.0  0.45966  0.84319  0.16613  1.0000
  O   O8        1.0  0.52947  0.89553  0.14091  1.0000
  C   C42       1.0  0.28956  0.82697  0.27821  1.0000
  C   C43       1.0  0.33871  0.86475  0.27837  1.0000
  H   H29       1.0  0.27036  0.82034  0.21944  1.0000
  N   N9        1.0  0.35797  0.88874  0.19943  1.0000
  H   H30       1.0  0.33863  0.88111  0.14458  1.0000
  H   H31       1.0  0.39124  0.91485  0.19522  1.0000
  C   C44       1.0  0.65442  0.51854  0.33336  1.0000
  C   C45       1.0  0.67854  0.51442  0.25586  1.0000
  C   C46       1.0  0.72669  0.52395  0.26376  1.0000
  C   C47       1.0  0.83057  0.54817  0.27827  1.0000
  C   C48       1.0  0.86838  0.53684  0.27844  1.0000
  H   H32       1.0  0.82397  0.56082  0.21957  1.0000
  H   H33       1.0  0.74074  0.51553  0.20915  1.0000
  N   N10       1.0  0.89240  0.54163  0.19952  1.0000
  H   H34       1.0  0.88475  0.55333  0.14467  1.0000
  H   H35       1.0  0.91850  0.53445  0.19527  1.0000
  N   N11       1.0  0.65697  0.49938  0.16938  1.0000
  O   O9        1.0  0.62367  0.45611  0.16615  1.0000
  O   O10       1.0  0.64115  0.52592  0.14094  1.0000
  C   C49       1.0  0.49936  0.13946  0.33357  1.0000
  C   C50       1.0  0.50335  0.16756  0.25592  1.0000
  C   C51       1.0  0.49377  0.20616  0.26374  1.0000
  C   C52       1.0  0.46973  0.28595  0.27824  1.0000
  C   C53       1.0  0.48112  0.33511  0.27843  1.0000
  H   H36       1.0  0.45713  0.26674  0.21948  1.0000
  H   H37       1.0  0.50221  0.22861  0.20912  1.0000
  N   N12       1.0  0.47636  0.35435  0.19949  1.0000
  H   H38       1.0  0.46464  0.33501  0.14465  1.0000
  H   H39       1.0  0.48353  0.38763  0.19526  1.0000
  N   N13       1.0  0.51834  0.16098  0.16943  1.0000
  O   O11       1.0  0.56164  0.17105  0.16608  1.0000
  O   O12       1.0  0.49185  0.11858  0.14116  1.0000
  C   C54       1.0  0.87847  0.36351  0.33330  1.0000
  C   C55       1.0  0.85024  0.33939  0.25578  1.0000
  C   C56       1.0  0.81161  0.29124  0.26367  1.0000
  C   C57       1.0  0.73194  0.18736  0.27819  1.0000
  C   C58       1.0  0.68281  0.14955  0.27835  1.0000
  H   H40       1.0  0.75119  0.19395  0.21949  1.0000
  H   H41       1.0  0.78917  0.27719  0.20905  1.0000
  N   N14       1.0  0.66359  0.12553  0.19943  1.0000
  H   H42       1.0  0.68293  0.13317  0.14458  1.0000
  H   H43       1.0  0.63031  0.09943  0.19517  1.0000
  N   N15       1.0  0.85680  0.36096  0.16928  1.0000
  O   O13       1.0  0.84683  0.39426  0.16602  1.0000
  O   O14       1.0  0.89916  0.37677  0.14089  1.0000
  C   C59       1.0  0.87800  0.44077  0.34934  1.0000
  C   C60       1.0  0.90421  0.49234  0.35502  1.0000
  C   C61       1.0  0.95565  0.51702  0.35628  1.0000
  N   N16       1.0  0.82834  0.41576  0.35131  1.0000
  H   H44       1.0  0.80918  0.43152  0.34929  1.0000
  H   H45       1.0  0.97252  0.55358  0.36423  1.0000
  C   C62       1.0  0.57716  0.44082  0.34942  1.0000
  C   C63       1.0  0.52560  0.41547  0.35505  1.0000
  C   C64       1.0  0.50091  0.44222  0.35626  1.0000
  N   N17       1.0  0.60218  0.41618  0.35148  1.0000
  C   C65       1.0  0.52060  0.57211  0.35621  1.0000
  C   C66       1.0  0.49592  0.59887  0.35496  1.0000
  C   C67       1.0  0.44435  0.57352  0.34934  1.0000
  N   N18       1.0  0.41934  0.59817  0.35130  1.0000
  H   H46       1.0  0.43511  0.63309  0.34922  1.0000
  H   H47       1.0  0.58641  0.38125  0.34951  1.0000
  H   H48       1.0  0.46435  0.42252  0.36418  1.0000
  H   H49       1.0  0.55717  0.59181  0.36410  1.0000
  C   C68       1.0  0.57709  0.13992  0.34930  1.0000
  C   C69       1.0  0.60244  0.11370  0.35494  1.0000
  C   C70       1.0  0.57568  0.06226  0.35621  1.0000
  N   N19       1.0  0.60174  0.18958  0.35122  1.0000
  C   C71       1.0  0.44578  0.95206  0.35627  1.0000
  C   C72       1.0  0.41903  0.90062  0.35504  1.0000
  C   C73       1.0  0.44438  0.87440  0.34942  1.0000
  N   N20       1.0  0.41974  0.82474  0.35147  1.0000
  H   H50       1.0  0.38481  0.80558  0.34953  1.0000
  H   H51       1.0  0.63666  0.20873  0.34913  1.0000
  H   H52       1.0  0.59537  0.04539  0.36410  1.0000
  H   H53       1.0  0.42609  0.96892  0.36419  1.0000
  C   C74       1.0  0.26748  0.47412  0.34516  1.0000
  C   C75       1.0  0.28965  0.46291  0.41832  1.0000
  C   C76       1.0  0.33926  0.47610  0.41278  1.0000
  H   H54       1.0  0.35599  0.47248  0.46894  1.0000
  N   N21       1.0  0.26493  0.43935  0.49420  1.0000
  H   H55       1.0  0.28022  0.43040  0.54147  1.0000
  C   C77       1.0  0.54368  0.79688  0.34511  1.0000
  C   C78       1.0  0.55492  0.83030  0.41819  1.0000
  C   C79       1.0  0.54175  0.86673  0.41257  1.0000
  H   H56       1.0  0.54547  0.88717  0.46867  1.0000
  C   C80       1.0  0.54278  0.75074  0.35280  1.0000
  C   C81       1.0  0.52249  0.65121  0.35899  1.0000
  C   C82       1.0  0.51811  0.67434  0.43780  1.0000
  C   C83       1.0  0.52646  0.72232  0.43250  1.0000
  H   H57       1.0  0.51727  0.73536  0.48755  1.0000
  N   N22       1.0  0.50127  0.64737  0.51910  1.0000
  N   N23       1.0  0.57860  0.82927  0.49398  1.0000
  H   H58       1.0  0.58714  0.85316  0.54180  1.0000
  H   H59       1.0  0.59404  0.80970  0.49669  1.0000
  O   O15       1.0  0.53187  0.66661  0.58132  1.0000
  O   O16       1.0  0.46190  0.64320  0.54524  1.0000
  C   C84       1.0  0.26718  0.79564  0.35283  1.0000
  C   C85       1.0  0.36668  0.87484  0.35907  1.0000
  C   C86       1.0  0.34354  0.84739  0.43791  1.0000
  C   C87       1.0  0.29553  0.80779  0.43262  1.0000
  H   H60       1.0  0.28251  0.78557  0.48767  1.0000
  N   N24       1.0  0.37050  0.85753  0.51923  1.0000
  O   O17       1.0  0.35127  0.86893  0.58140  1.0000
  O   O18       1.0  0.37464  0.82232  0.54545  1.0000
  C   C88       1.0  0.75398  0.54010  0.34518  1.0000
  C   C89       1.0  0.73181  0.55135  0.41825  1.0000
  C   C90       1.0  0.68221  0.53819  0.41262  1.0000
  H   H61       1.0  0.66549  0.54191  0.46870  1.0000
  C   C91       1.0  0.79922  0.53919  0.35288  1.0000
  C   C92       1.0  0.87843  0.51890  0.35911  1.0000
  C   C93       1.0  0.85094  0.51452  0.43792  1.0000
  C   C94       1.0  0.81131  0.52287  0.43259  1.0000
  H   H62       1.0  0.78908  0.51368  0.48763  1.0000
  N   N25       1.0  0.86105  0.49766  0.51921  1.0000
  N   N26       1.0  0.75652  0.57503  0.49404  1.0000
  H   H63       1.0  0.74116  0.58357  0.54185  1.0000
  H   H64       1.0  0.79152  0.59046  0.49676  1.0000
  O   O19       1.0  0.87240  0.52824  0.58144  1.0000
  O   O20       1.0  0.82585  0.45828  0.54532  1.0000
  C   C95       1.0  0.47770  0.21738  0.34518  1.0000
  C   C96       1.0  0.46651  0.18401  0.41836  1.0000
  C   C97       1.0  0.47970  0.14759  0.41279  1.0000
  H   H65       1.0  0.47609  0.12723  0.46895  1.0000
  C   C98       1.0  0.47869  0.26356  0.35283  1.0000
  C   C99       1.0  0.49903  0.36313  0.35908  1.0000
  C   C100      1.0  0.50334  0.33994  0.43786  1.0000
  C   C101      1.0  0.49492  0.29193  0.43259  1.0000
  H   H66       1.0  0.50413  0.27891  0.48764  1.0000
  N   N27       1.0  0.52018  0.36690  0.51918  1.0000
  N   N28       1.0  0.44297  0.18518  0.49426  1.0000
  H   H67       1.0  0.43404  0.16094  0.54155  1.0000
  H   H68       1.0  0.42713  0.20437  0.49621  1.0000
  O   O21       1.0  0.48955  0.34768  0.58136  1.0000
  O   O22       1.0  0.55952  0.37103  0.54539  1.0000
  C   C102      1.0  0.80046  0.26395  0.34510  1.0000
  C   C103      1.0  0.83387  0.28613  0.41819  1.0000
  C   C104      1.0  0.87030  0.33573  0.41256  1.0000
  H   H69       1.0  0.89073  0.35245  0.46866  1.0000
  C   C105      1.0  0.75431  0.21871  0.35278  1.0000
  C   C106      1.0  0.65478  0.13947  0.35897  1.0000
  C   C107      1.0  0.67790  0.16698  0.43777  1.0000
  C   C108      1.0  0.72589  0.20662  0.43248  1.0000
  H   H70       1.0  0.73892  0.22886  0.48751  1.0000
  N   N29       1.0  0.65093  0.15688  0.51906  1.0000
  N   N30       1.0  0.83282  0.26143  0.49400  1.0000
  H   H71       1.0  0.85671  0.27679  0.54182  1.0000
  H   H72       1.0  0.81325  0.22643  0.49672  1.0000
  O   O23       1.0  0.67017  0.14553  0.58131  1.0000
  O   O24       1.0  0.64676  0.19208  0.54519  1.0000
