data_image0
_chemical_formula_structural       CH4CH4CNC4H2NH2NHCNC4H2NH2NHCNC4H2NH2NHC29H17C3O3C29H17C3O3C4HCNHNH2NHC4HCNHNH2NHC4HCNHNH2NH
_chemical_formula_sum              "C96 H72 N18 O6"
_cell_length_a       52.3723
_cell_length_b       52.3724
_cell_length_c       14.9606
_cell_angle_alpha    90
_cell_angle_beta     90
_cell_angle_gamma    120

_space_group_name_H-M_alt    "P 1"
_space_group_IT_number       1

loop_
  _space_group_symop_operation_xyz
  'x, y, z'

loop_
  _atom_site_type_symbol
  _atom_site_label
  _atom_site_symmetry_multiplicity
  _atom_site_fract_x
  _atom_site_fract_y
  _atom_site_fract_z
  _atom_site_occupancy
  C   C1        1.0  0.39455  0.82904  0.31165  1.0000
  H   H1        1.0  0.38484  0.84145  0.29930  1.0000
  H   H2        1.0  0.35611  0.78934  0.28012  1.0000
  H   H3        1.0  0.45951  0.61883  0.30225  1.0000
  H   H4        1.0  0.16168  0.54390  0.30090  1.0000
  C   C2        1.0  0.60175  0.17271  0.33979  1.0000
  H   H5        1.0  0.61071  0.15948  0.33039  1.0000
  H   H6        1.0  0.64336  0.21119  0.34092  1.0000
  H   H7        1.0  0.55147  0.39274  0.33332  1.0000
  H   H8        1.0  0.84368  0.45168  0.33201  1.0000
  C   C3        1.0  0.54528  0.48212  0.28840  1.0000
  N   N1        1.0  0.52966  0.49627  0.28238  1.0000
  C   C4        1.0  0.49463  0.51001  0.32570  1.0000
  C   C5        1.0  0.48221  0.51125  0.24210  1.0000
  C   C6        1.0  0.47020  0.53016  0.23537  1.0000
  C   C7        1.0  0.46918  0.54638  0.30928  1.0000
  H   H9        1.0  0.46079  0.53121  0.17650  1.0000
  H   H10       1.0  0.55933  0.48477  0.23744  1.0000
  N   N2        1.0  0.48033  0.49451  0.17011  1.0000
  H   H11       1.0  0.48610  0.47959  0.17336  1.0000
  H   H12       1.0  0.47105  0.49544  0.11474  1.0000
  N   N3        1.0  0.45677  0.56395  0.30134  1.0000
  H   H13       1.0  0.46075  0.57515  0.24599  1.0000
  C   C8        1.0  0.52148  0.06387  0.28830  1.0000
  N   N4        1.0  0.50728  0.03409  0.28221  1.0000
  C   C9        1.0  0.49363  0.98533  0.32525  1.0000
  C   C10       1.0  0.49257  0.97166  0.24187  1.0000
  C   C11       1.0  0.47368  0.94074  0.23517  1.0000
  C   C12       1.0  0.45727  0.92353  0.30890  1.0000
  H   H14       1.0  0.47275  0.93025  0.17646  1.0000
  H   H15       1.0  0.51871  0.07530  0.23770  1.0000
  N   N5        1.0  0.50944  0.98651  0.17010  1.0000
  H   H16       1.0  0.52429  0.00723  0.17336  1.0000
  H   H17       1.0  0.50863  0.97630  0.11485  1.0000
  N   N6        1.0  0.43972  0.89354  0.30095  1.0000
  H   H18       1.0  0.42881  0.88629  0.24511  1.0000
  C   C13       1.0  0.93926  0.45796  0.28834  1.0000
  N   N7        1.0  0.96904  0.47357  0.28232  1.0000
  C   C14       1.0  0.01779  0.50870  0.32539  1.0000
  C   C15       1.0  0.03141  0.52117  0.24182  1.0000
  C   C16       1.0  0.06234  0.53326  0.23504  1.0000
  C   C17       1.0  0.07961  0.53428  0.30887  1.0000
  H   H19       1.0  0.07277  0.54268  0.17615  1.0000
  H   H20       1.0  0.92785  0.44378  0.23764  1.0000
  N   N8        1.0  0.01650  0.52298  0.16987  1.0000
  H   H21       1.0  0.99584  0.51732  0.17344  1.0000
  H   H22       1.0  0.02672  0.53248  0.11473  1.0000
  N   N9        1.0  0.10960  0.54683  0.30083  1.0000
  H   H23       1.0  0.11687  0.54291  0.24544  1.0000
  C   C18       1.0  0.42405  0.84249  0.34207  1.0000
  C   C19       1.0  0.43600  0.82407  0.36061  1.0000
  C   C20       1.0  0.41914  0.79334  0.34868  1.0000
  C   C21       1.0  0.38944  0.77983  0.32003  1.0000
  C   C22       1.0  0.37753  0.79824  0.30089  1.0000
  C   C23       1.0  0.37205  0.74940  0.30900  1.0000
  C   C24       1.0  0.37147  0.72938  0.36666  1.0000
  C   C25       1.0  0.35347  0.69913  0.35692  1.0000
  C   C26       1.0  0.32241  0.68601  0.35749  1.0000
  C   C27       1.0  0.30400  0.65502  0.35678  1.0000
  C   C28       1.0  0.31712  0.63708  0.35721  1.0000
  C   C29       1.0  0.34811  0.64966  0.35669  1.0000
  C   C30       1.0  0.36604  0.68072  0.35739  1.0000
  C   C31       1.0  0.36036  0.63163  0.36603  1.0000
  C   C32       1.0  0.38006  0.63136  0.30884  1.0000
  C   C33       1.0  0.39308  0.61395  0.31965  1.0000
  C   C34       1.0  0.42354  0.62604  0.30246  1.0000
  C   C35       1.0  0.37672  0.58404  0.34624  1.0000
  C   C36       1.0  0.39056  0.56715  0.35815  1.0000
  C   C37       1.0  0.42107  0.57928  0.34154  1.0000
  C   C38       1.0  0.43728  0.60899  0.31306  1.0000
  C   C39       1.0  0.27373  0.64277  0.36628  1.0000
  C   C40       1.0  0.25374  0.62321  0.30882  1.0000
  C   C41       1.0  0.22331  0.61020  0.31971  1.0000
  C   C42       1.0  0.20981  0.62653  0.34713  1.0000
  C   C43       1.0  0.20490  0.57981  0.30171  1.0000
  C   C44       1.0  0.17411  0.56608  0.31237  1.0000
  C   C45       1.0  0.16066  0.58226  0.34162  1.0000
  C   C46       1.0  0.17908  0.61271  0.35903  1.0000
  H   H24       1.0  0.45736  0.83291  0.38168  1.0000
  H   H25       1.0  0.42883  0.78092  0.36141  1.0000
  H   H26       1.0  0.38851  0.69002  0.36112  1.0000
  H   H27       1.0  0.31311  0.69918  0.36120  1.0000
  H   H28       1.0  0.30395  0.61461  0.36072  1.0000
  H   H29       1.0  0.22223  0.64870  0.35902  1.0000
  H   H30       1.0  0.43616  0.64761  0.28318  1.0000
  H   H31       1.0  0.37792  0.54563  0.37770  1.0000
  H   H32       1.0  0.35452  0.57423  0.35755  1.0000
  H   H33       1.0  0.17024  0.62532  0.37920  1.0000
  H   H34       1.0  0.21381  0.56721  0.28181  1.0000
  H   H35       1.0  0.38660  0.64512  0.25698  1.0000
  H   H36       1.0  0.35396  0.61829  0.41882  1.0000
  H   H37       1.0  0.35855  0.74220  0.25653  1.0000
  H   H38       1.0  0.38453  0.73627  0.42008  1.0000
  H   H39       1.0  0.26095  0.61679  0.25664  1.0000
  H   H40       1.0  0.26681  0.64905  0.41937  1.0000
  C   C47       1.0  0.12962  0.56834  0.35566  1.0000
  C   C48       1.0  0.43502  0.56219  0.35561  1.0000
  C   C49       1.0  0.44112  0.87353  0.35611  1.0000
  O   O1        1.0  0.42410  0.54161  0.42129  1.0000
  O   O2        1.0  0.46126  0.88319  0.42304  1.0000
  O   O3        1.0  0.11998  0.57905  0.42199  1.0000
  C   C50       1.0  0.57078  0.16052  0.34496  1.0000
  C   C51       1.0  0.56003  0.18045  0.35354  1.0000
  C   C52       1.0  0.57934  0.21111  0.35858  1.0000
  C   C53       1.0  0.61020  0.22299  0.35397  1.0000
  C   C54       1.0  0.62113  0.20334  0.34497  1.0000
  C   C55       1.0  0.62975  0.25311  0.36075  1.0000
  C   C56       1.0  0.62872  0.27341  0.30811  1.0000
  C   C57       1.0  0.64858  0.30357  0.31321  1.0000
  C   C58       1.0  0.67942  0.31491  0.31236  1.0000
  C   C59       1.0  0.69951  0.34561  0.31276  1.0000
  C   C60       1.0  0.68816  0.36512  0.31197  1.0000
  C   C61       1.0  0.65746  0.35450  0.31274  1.0000
  C   C62       1.0  0.63796  0.32365  0.31241  1.0000
  C   C63       1.0  0.64716  0.37434  0.30719  1.0000
  C   C64       1.0  0.62606  0.37358  0.36035  1.0000
  C   C65       1.0  0.61555  0.39317  0.35342  1.0000
  C   C66       1.0  0.58492  0.38228  0.34650  1.0000
  C   C67       1.0  0.63462  0.42404  0.35584  1.0000
  C   C68       1.0  0.62333  0.44340  0.35072  1.0000
  C   C69       1.0  0.59261  0.43270  0.34419  1.0000
  C   C70       1.0  0.57372  0.40171  0.34121  1.0000
  C   C71       1.0  0.72965  0.35591  0.30734  1.0000
  C   C72       1.0  0.74997  0.37710  0.36029  1.0000
  C   C73       1.0  0.78008  0.38762  0.35343  1.0000
  C   C74       1.0  0.79190  0.36858  0.35679  1.0000
  C   C75       1.0  0.79979  0.41824  0.34565  1.0000
  C   C76       1.0  0.83042  0.42945  0.34047  1.0000
  C   C77       1.0  0.84254  0.41059  0.34443  1.0000
  C   C78       1.0  0.82256  0.37989  0.35178  1.0000
  H   H41       1.0  0.53787  0.17283  0.35797  1.0000
  H   H42       1.0  0.57066  0.22468  0.36636  1.0000
  H   H43       1.0  0.61566  0.31569  0.31005  1.0000
  H   H44       1.0  0.68739  0.30059  0.30999  1.0000
  H   H45       1.0  0.70249  0.38741  0.30930  1.0000
  H   H46       1.0  0.77830  0.34630  0.36366  1.0000
  H   H47       1.0  0.57045  0.36005  0.34405  1.0000
  H   H48       1.0  0.63795  0.46556  0.35351  1.0000
  H   H49       1.0  0.65692  0.43271  0.36210  1.0000
  H   H50       1.0  0.83013  0.36530  0.35525  1.0000
  H   H51       1.0  0.79199  0.43267  0.34257  1.0000
  H   H52       1.0  0.61666  0.35767  0.40591  1.0000
  H   H53       1.0  0.65642  0.39022  0.26147  1.0000
  H   H54       1.0  0.64586  0.25964  0.40564  1.0000
  H   H55       1.0  0.61265  0.26674  0.26302  1.0000
  H   H56       1.0  0.74346  0.38657  0.40558  1.0000
  H   H57       1.0  0.73628  0.34658  0.26187  1.0000
  C   C79       1.0  0.87369  0.42180  0.33858  1.0000
  C   C80       1.0  0.58142  0.45265  0.33820  1.0000
  C   C81       1.0  0.55088  0.12938  0.33910  1.0000
  O   O4        1.0  0.60024  0.48049  0.31021  1.0000
  O   O5        1.0  0.52287  0.12027  0.31271  1.0000
  O   O6        1.0  0.88275  0.40295  0.31127  1.0000
  C   C82       1.0  0.54067  0.46286  0.36047  1.0000
  C   C83       1.0  0.50871  0.49325  0.34194  1.0000
  C   C84       1.0  0.50267  0.47408  0.41632  1.0000
  C   C85       1.0  0.51904  0.45930  0.42375  1.0000
  H   H58       1.0  0.51468  0.44504  0.47590  1.0000
  C   C86       1.0  0.48211  0.54437  0.38964  1.0000
  N   N10       1.0  0.49428  0.52688  0.39436  1.0000
  H   H59       1.0  0.48290  0.55634  0.44456  1.0000
  N   N11       1.0  0.48130  0.46833  0.47782  1.0000
  H   H60       1.0  0.47722  0.45441  0.52631  1.0000
  H   H61       1.0  0.46795  0.47601  0.47165  1.0000
  N   N12       1.0  0.55395  0.44583  0.36696  1.0000
  H   H62       1.0  0.54285  0.42740  0.39973  1.0000
  C   C87       1.0  0.54093  0.07849  0.36000  1.0000
  C   C88       1.0  0.51043  0.01616  0.34144  1.0000
  C   C89       1.0  0.52979  0.02925  0.41543  1.0000
  C   C90       1.0  0.54466  0.06040  0.42282  1.0000
  H   H63       1.0  0.55907  0.07030  0.47467  1.0000
  C   C91       1.0  0.45910  0.93851  0.38902  1.0000
  N   N13       1.0  0.47662  0.96817  0.39376  1.0000
  H   H64       1.0  0.44701  0.92737  0.44380  1.0000
  N   N14       1.0  0.53565  0.01360  0.47646  1.0000
  H   H65       1.0  0.54955  0.02338  0.52506  1.0000
  H   H66       1.0  0.52768  0.99250  0.47074  1.0000
  N   N15       1.0  0.55796  0.10878  0.36643  1.0000
  H   H67       1.0  0.57658  0.11614  0.39820  1.0000
  C   C92       1.0  0.92461  0.46265  0.36023  1.0000
  C   C93       1.0  0.98695  0.49460  0.34168  1.0000
  C   C94       1.0  0.97382  0.50075  0.41583  1.0000
  C   C95       1.0  0.94268  0.48440  0.42325  1.0000
  H   H68       1.0  0.93277  0.48882  0.47524  1.0000
  C   C96       1.0  0.06469  0.52129  0.38922  1.0000
  N   N16       1.0  0.03503  0.50908  0.39401  1.0000
  H   H69       1.0  0.07589  0.52053  0.44411  1.0000
  N   N17       1.0  0.98943  0.52223  0.47704  1.0000
  H   H70       1.0  0.97962  0.52626  0.52572  1.0000
  H   H71       1.0  0.01051  0.53544  0.47126  1.0000
  N   N18       1.0  0.89431  0.44937  0.36671  1.0000
  H   H72       1.0  0.88696  0.46053  0.39906  1.0000
