data_image0
_chemical_formula_structural       C8HC7HCH4C4O3C4HC4H3NHC4HC4H3NHC4HC4H3NHC4HC4H3NHC4HC4H3NHC4HC4H3NHOC8HC7HCH4C4O4C8HC7HCH4C4O4CNC2NC2H3CH3NHCNC2NC2H3CH3NHCNC2NC2H3CH3NHCNC2NC2H3CH3NHCNC2NC2H3CH3NHCNC2NC2H3CH3NH
_chemical_formula_sum              "C144 H90 O12 N24"
_cell_length_a       38.1599
_cell_length_b       38.1599
_cell_length_c       15.0557
_cell_angle_alpha    89.9994
_cell_angle_beta     90.0006
_cell_angle_gamma    120

_space_group_name_H-M_alt    "P 1"
_space_group_IT_number       1

loop_
  _space_group_symop_operation_xyz
  'x, y, z'

loop_
  _atom_site_type_symbol
  _atom_site_label
  _atom_site_symmetry_multiplicity
  _atom_site_fract_x
  _atom_site_fract_y
  _atom_site_fract_z
  _atom_site_occupancy
  C   C1        1.0  0.02280  0.52652  0.32764  1.0000
  C   C2        1.0  0.98847  0.48663  0.32679  1.0000
  C   C3        1.0  0.99375  0.45220  0.32805  1.0000
  C   C4        1.0  0.03327  0.45828  0.33067  1.0000
  C   C5        1.0  0.06782  0.49718  0.33207  1.0000
  C   C6        1.0  0.06253  0.53158  0.32928  1.0000
  C   C7        1.0  0.94968  0.48272  0.32345  1.0000
  C   C8        1.0  0.09575  0.57144  0.32926  1.0000
  H   H1        1.0  0.03697  0.43343  0.33250  1.0000
  C   C9        1.0  0.01736  0.56118  0.32762  1.0000
  C   C10       1.0  0.97763  0.55612  0.32925  1.0000
  C   C11       1.0  0.97233  0.59052  0.33197  1.0000
  C   C12       1.0  0.00689  0.62942  0.33060  1.0000
  C   C13       1.0  0.04640  0.63549  0.32798  1.0000
  C   C14       1.0  0.05169  0.60107  0.32674  1.0000
  C   C15       1.0  0.94440  0.51626  0.32926  1.0000
  H   H2        1.0  0.00318  0.65426  0.33244  1.0000
  C   C16       1.0  0.09048  0.60498  0.32341  1.0000
  H   H3        1.0  0.91533  0.51039  0.33238  1.0000
  H   H4        1.0  0.92402  0.45527  0.31803  1.0000
  H   H5        1.0  0.11613  0.63243  0.31803  1.0000
  H   H6        1.0  0.12483  0.57731  0.33247  1.0000
  C   C17       1.0  0.10581  0.49891  0.34219  1.0000
  C   C18       1.0  0.96128  0.41140  0.32517  1.0000
  C   C19       1.0  0.93434  0.58875  0.34227  1.0000
  C   C20       1.0  0.07887  0.67630  0.32516  1.0000
  O   O1        1.0  0.10756  0.47371  0.40331  1.0000
  O   O2        1.0  0.96509  0.38559  0.26951  1.0000
  O   O3        1.0  0.07506  0.70212  0.26952  1.0000
  C   C21       1.0  0.17536  0.52413  0.30129  1.0000
  C   C22       1.0  0.24413  0.51612  0.32183  1.0000
  C   C23       1.0  0.22773  0.51266  0.23561  1.0000
  C   C24       1.0  0.19301  0.51647  0.22660  1.0000
  H   H7        1.0  0.17923  0.51161  0.16589  1.0000
  C   C25       1.0  0.32682  0.49387  0.27829  1.0000
  C   C26       1.0  0.29437  0.50064  0.26189  1.0000
  C   C27       1.0  0.27929  0.49918  0.17546  1.0000
  C   C28       1.0  0.24565  0.50436  0.16262  1.0000
  H   H8        1.0  0.29170  0.49292  0.12181  1.0000
  H   H9        1.0  0.23437  0.50197  0.09987  1.0000
  H   H10       1.0  0.34129  0.49036  0.22491  1.0000
  N   N1        1.0  0.13881  0.52225  0.29082  1.0000
  H   H11       1.0  0.13458  0.53360  0.23649  1.0000
  C   C29       1.0  0.53974  0.71881  0.30118  1.0000
  C   C30       1.0  0.54766  0.79554  0.32185  1.0000
  C   C31       1.0  0.55115  0.78264  0.23562  1.0000
  C   C32       1.0  0.54744  0.74416  0.22656  1.0000
  H   H12       1.0  0.55227  0.73525  0.16581  1.0000
  C   C33       1.0  0.56993  0.90050  0.27857  1.0000
  C   C34       1.0  0.56312  0.86127  0.26207  1.0000
  C   C35       1.0  0.56455  0.84768  0.17559  1.0000
  C   C36       1.0  0.55942  0.80888  0.16267  1.0000
  H   H13       1.0  0.57087  0.86639  0.12199  1.0000
  H   H14       1.0  0.56186  0.80004  0.09991  1.0000
  H   H15       1.0  0.57346  0.91852  0.22523  1.0000
  N   N2        1.0  0.54184  0.68426  0.29066  1.0000
  H   H16       1.0  0.53035  0.66857  0.23651  1.0000
  C   C37       1.0  0.34505  0.88858  0.30136  1.0000
  C   C38       1.0  0.26825  0.81984  0.32189  1.0000
  C   C39       1.0  0.28120  0.83624  0.23568  1.0000
  C   C40       1.0  0.31973  0.87096  0.22668  1.0000
  H   H17       1.0  0.32867  0.88472  0.16596  1.0000
  C   C41       1.0  0.16331  0.73716  0.27834  1.0000
  C   C42       1.0  0.20254  0.76961  0.26194  1.0000
  C   C43       1.0  0.21616  0.78468  0.17552  1.0000
  C   C44       1.0  0.25499  0.81830  0.16267  1.0000
  H   H18       1.0  0.19751  0.77225  0.12184  1.0000
  H   H19       1.0  0.26389  0.82958  0.09992  1.0000
  H   H20       1.0  0.14533  0.72269  0.22494  1.0000
  N   N3        1.0  0.37969  0.92518  0.29090  1.0000
  H   H21       1.0  0.39532  0.92931  0.23669  1.0000
  C   C45       1.0  0.86476  0.56354  0.30130  1.0000
  C   C46       1.0  0.79599  0.57153  0.32197  1.0000
  C   C47       1.0  0.81235  0.57497  0.23573  1.0000
  C   C48       1.0  0.84708  0.57119  0.22665  1.0000
  H   H22       1.0  0.86082  0.57601  0.16591  1.0000
  C   C49       1.0  0.71328  0.59377  0.27862  1.0000
  C   C50       1.0  0.74572  0.58698  0.26214  1.0000
  C   C51       1.0  0.76075  0.58841  0.17567  1.0000
  C   C52       1.0  0.79438  0.58322  0.16276  1.0000
  H   H23       1.0  0.74830  0.59462  0.12203  1.0000
  H   H24       1.0  0.80563  0.58559  0.09998  1.0000
  H   H25       1.0  0.69880  0.59730  0.22526  1.0000
  N   N4        1.0  0.90137  0.56552  0.29077  1.0000
  H   H26       1.0  0.90550  0.55404  0.23653  1.0000
  C   C53       1.0  0.50037  0.36887  0.30128  1.0000
  C   C54       1.0  0.49235  0.29208  0.32179  1.0000
  C   C55       1.0  0.48889  0.30503  0.23559  1.0000
  C   C56       1.0  0.49271  0.34356  0.22658  1.0000
  H   H27       1.0  0.48785  0.35249  0.16588  1.0000
  C   C57       1.0  0.47009  0.18715  0.27825  1.0000
  C   C58       1.0  0.47686  0.22637  0.26185  1.0000
  C   C59       1.0  0.47541  0.23999  0.17542  1.0000
  C   C60       1.0  0.48059  0.27882  0.16258  1.0000
  H   H28       1.0  0.46914  0.22132  0.12177  1.0000
  H   H29       1.0  0.47820  0.28770  0.09984  1.0000
  H   H30       1.0  0.46658  0.16917  0.22485  1.0000
  N   N5        1.0  0.49849  0.40355  0.29082  1.0000
  H   H31       1.0  0.50985  0.41913  0.23650  1.0000
  C   C61       1.0  0.69510  0.19906  0.30133  1.0000
  C   C62       1.0  0.77187  0.26785  0.32184  1.0000
  C   C63       1.0  0.75894  0.25142  0.23564  1.0000
  C   C64       1.0  0.72044  0.21667  0.22667  1.0000
  H   H32       1.0  0.71150  0.20291  0.16594  1.0000
  C   C65       1.0  0.87681  0.35051  0.27832  1.0000
  C   C66       1.0  0.83759  0.31808  0.26190  1.0000
  C   C67       1.0  0.82396  0.30301  0.17547  1.0000
  C   C68       1.0  0.78516  0.26935  0.16264  1.0000
  H   H33       1.0  0.84265  0.31538  0.12183  1.0000
  H   H34       1.0  0.77629  0.25804  0.09991  1.0000
  H   H35       1.0  0.89481  0.36498  0.22493  1.0000
  N   N6        1.0  0.66051  0.16243  0.29087  1.0000
  H   H36       1.0  0.64482  0.15825  0.23672  1.0000
  O   O4        1.0  0.93263  0.61405  0.40320  1.0000
  C   C69       1.0  0.53745  0.56392  0.32774  1.0000
  C   C70       1.0  0.57734  0.56948  0.32699  1.0000
  C   C71       1.0  0.61177  0.60918  0.32835  1.0000
  C   C72       1.0  0.60570  0.64263  0.33094  1.0000
  C   C73       1.0  0.56681  0.63829  0.33219  1.0000
  C   C74       1.0  0.53240  0.59859  0.32934  1.0000
  C   C75       1.0  0.58124  0.53459  0.32360  1.0000
  C   C76       1.0  0.49254  0.59197  0.32925  1.0000
  H   H37       1.0  0.63055  0.67117  0.33280  1.0000
  C   C77       1.0  0.50279  0.52383  0.32769  1.0000
  C   C78       1.0  0.50784  0.48916  0.32934  1.0000
  C   C79       1.0  0.47343  0.44946  0.33205  1.0000
  C   C80       1.0  0.43454  0.44513  0.33071  1.0000
  C   C81       1.0  0.42847  0.47857  0.32807  1.0000
  C   C82       1.0  0.46290  0.51828  0.32679  1.0000
  C   C83       1.0  0.54770  0.49578  0.32937  1.0000
  H   H38       1.0  0.40969  0.41658  0.33251  1.0000
  C   C84       1.0  0.45901  0.55317  0.32337  1.0000
  H   H39       1.0  0.55356  0.47257  0.33257  1.0000
  H   H40       1.0  0.60870  0.53639  0.31830  1.0000
  H   H41       1.0  0.43155  0.55137  0.31799  1.0000
  H   H42       1.0  0.48669  0.61519  0.33244  1.0000
  C   C85       1.0  0.56507  0.67454  0.34224  1.0000
  C   C86       1.0  0.65258  0.61752  0.32566  1.0000
  C   C87       1.0  0.47516  0.41321  0.34220  1.0000
  C   C88       1.0  0.38766  0.47022  0.32526  1.0000
  O   O5        1.0  0.59026  0.70151  0.40334  1.0000
  O   O6        1.0  0.67842  0.64712  0.26998  1.0000
  O   O7        1.0  0.44994  0.38625  0.40328  1.0000
  O   O8        1.0  0.36188  0.44069  0.26939  1.0000
  C   C89       1.0  0.50004  0.04112  0.32782  1.0000
  C   C90       1.0  0.49450  0.07546  0.32688  1.0000
  C   C91       1.0  0.45480  0.07020  0.32808  1.0000
  C   C92       1.0  0.42135  0.03069  0.33075  1.0000
  C   C93       1.0  0.42566  0.99613  0.33223  1.0000
  C   C94       1.0  0.46536  0.00140  0.32948  1.0000
  C   C95       1.0  0.52941  0.11424  0.32350  1.0000
  C   C96       1.0  0.47196  0.96815  0.32954  1.0000
  H   H43       1.0  0.39281  0.02701  0.33255  1.0000
  C   C97       1.0  0.54012  0.04652  0.32789  1.0000
  C   C98       1.0  0.57480  0.08624  0.32952  1.0000
  C   C99       1.0  0.61450  0.09151  0.33241  1.0000
  C   C100      1.0  0.61881  0.05694  0.33109  1.0000
  C   C101      1.0  0.58536  0.01744  0.32844  1.0000
  C   C102      1.0  0.54566  0.01218  0.32711  1.0000
  C   C103      1.0  0.56820  0.11949  0.32943  1.0000
  H   H44       1.0  0.64736  0.06063  0.33295  1.0000
  C   C104      1.0  0.51076  0.97340  0.32371  1.0000
  H   H45       1.0  0.59143  0.14856  0.33260  1.0000
  H   H46       1.0  0.52762  0.13990  0.31809  1.0000
  H   H47       1.0  0.51254  0.94773  0.31842  1.0000
  H   H48       1.0  0.44874  0.93908  0.33272  1.0000
  C   C105      1.0  0.38942  0.95815  0.34240  1.0000
  C   C106      1.0  0.44648  0.10268  0.32518  1.0000
  C   C107      1.0  0.65075  0.12949  0.34250  1.0000
  C   C108      1.0  0.59367  0.98495  0.32566  1.0000
  O   O9        1.0  0.36241  0.95643  0.40332  1.0000
  O   O10       1.0  0.41693  0.09890  0.26932  1.0000
  O   O11       1.0  0.67772  0.13125  0.40356  1.0000
  O   O12       1.0  0.62327  0.98872  0.26998  1.0000
  C   C109      1.0  0.19584  0.53178  0.38425  1.0000
  N   N7        1.0  0.22827  0.52638  0.39084  1.0000
  C   C110      1.0  0.27658  0.50903  0.33532  1.0000
  C   C111      1.0  0.34025  0.49304  0.36583  1.0000
  N   N8        1.0  0.29046  0.50905  0.41826  1.0000
  C   C112      1.0  0.32093  0.50153  0.43675  1.0000
  C   C113      1.0  0.18571  0.54663  0.46565  1.0000
  H   H49       1.0  0.16242  0.55470  0.45444  1.0000
  H   H50       1.0  0.21264  0.57371  0.48960  1.0000
  H   H51       1.0  0.17537  0.52347  0.51721  1.0000
  C   C114      1.0  0.33162  0.50204  0.53145  1.0000
  H   H52       1.0  0.31149  0.50685  0.57497  1.0000
  H   H53       1.0  0.36250  0.52643  0.54338  1.0000
  H   H54       1.0  0.32923  0.47320  0.54923  1.0000
  N   N9        1.0  0.37339  0.48845  0.38069  1.0000
  H   H55       1.0  0.39093  0.50376  0.42999  1.0000
  C   C115      1.0  0.53207  0.73159  0.38417  1.0000
  N   N10       1.0  0.53742  0.76941  0.39082  1.0000
  C   C116      1.0  0.55473  0.83507  0.33544  1.0000
  C   C117      1.0  0.57081  0.91474  0.36615  1.0000
  N   N11       1.0  0.55473  0.84889  0.41843  1.0000
  C   C118      1.0  0.56230  0.88689  0.43700  1.0000
  C   C119      1.0  0.51723  0.70658  0.46553  1.0000
  H   H56       1.0  0.50919  0.67523  0.45425  1.0000
  H   H57       1.0  0.49014  0.70639  0.48952  1.0000
  H   H58       1.0  0.54040  0.71939  0.51709  1.0000
  C   C120      1.0  0.56181  0.89704  0.53175  1.0000
  H   H59       1.0  0.55698  0.87208  0.57519  1.0000
  H   H60       1.0  0.53746  0.90358  0.54374  1.0000
  H   H61       1.0  0.59068  0.92346  0.54954  1.0000
  N   N12       1.0  0.57547  0.95249  0.38116  1.0000
  H   H62       1.0  0.56015  0.95475  0.43040  1.0000
  C   C121      1.0  0.33220  0.86812  0.38433  1.0000
  N   N13       1.0  0.29436  0.83570  0.39092  1.0000
  C   C122      1.0  0.22871  0.78740  0.33538  1.0000
  C   C123      1.0  0.14904  0.72374  0.36587  1.0000
  N   N14       1.0  0.21484  0.77352  0.41832  1.0000
  C   C124      1.0  0.17685  0.74306  0.43679  1.0000
  C   C125      1.0  0.35716  0.87827  0.46577  1.0000
  H   H63       1.0  0.38853  0.90153  0.45457  1.0000
  H   H64       1.0  0.35728  0.85134  0.48982  1.0000
  H   H65       1.0  0.34435  0.88866  0.51725  1.0000
  C   C126      1.0  0.16666  0.73237  0.53151  1.0000
  H   H66       1.0  0.19159  0.75250  0.57502  1.0000
  H   H67       1.0  0.16017  0.70149  0.54344  1.0000
  H   H68       1.0  0.14021  0.73475  0.54927  1.0000
  N   N15       1.0  0.11130  0.69059  0.38075  1.0000
  H   H69       1.0  0.10910  0.67303  0.42999  1.0000
  C   C127      1.0  0.84433  0.55592  0.38431  1.0000
  N   N16       1.0  0.81189  0.56131  0.39096  1.0000
  C   C128      1.0  0.76355  0.57862  0.33553  1.0000
  C   C129      1.0  0.69994  0.59469  0.36619  1.0000
  N   N17       1.0  0.74971  0.57863  0.41851  1.0000
  C   C130      1.0  0.71927  0.58618  0.43705  1.0000
  C   C131      1.0  0.85450  0.54110  0.46570  1.0000
  H   H70       1.0  0.87777  0.53300  0.45444  1.0000
  H   H71       1.0  0.82758  0.51404  0.48976  1.0000
  H   H72       1.0  0.86490  0.56429  0.51720  1.0000
  C   C132      1.0  0.70863  0.58571  0.53179  1.0000
  H   H73       1.0  0.72877  0.58089  0.57526  1.0000
  H   H74       1.0  0.67775  0.56136  0.54380  1.0000
  H   H75       1.0  0.71107  0.61458  0.54955  1.0000
  N   N18       1.0  0.66683  0.59932  0.38121  1.0000
  H   H76       1.0  0.64924  0.58396  0.43039  1.0000
  C   C133      1.0  0.50802  0.35604  0.38423  1.0000
  N   N19       1.0  0.50261  0.31820  0.39082  1.0000
  C   C134      1.0  0.48525  0.25255  0.33529  1.0000
  C   C135      1.0  0.46926  0.17289  0.36578  1.0000
  N   N20       1.0  0.48528  0.23869  0.41822  1.0000
  C   C136      1.0  0.47775  0.20070  0.43670  1.0000
  C   C137      1.0  0.52287  0.38101  0.46564  1.0000
  H   H77       1.0  0.53094  0.41237  0.45445  1.0000
  H   H78       1.0  0.54995  0.38116  0.48960  1.0000
  H   H79       1.0  0.49970  0.36819  0.51719  1.0000
  C   C138      1.0  0.47828  0.19052  0.53141  1.0000
  H   H80       1.0  0.48309  0.21545  0.57492  1.0000
  H   H81       1.0  0.50266  0.18402  0.54332  1.0000
  H   H82       1.0  0.44943  0.16406  0.54919  1.0000
  N   N21       1.0  0.46467  0.13516  0.38064  1.0000
  H   H83       1.0  0.47995  0.13289  0.42998  1.0000
  C   C139      1.0  0.70793  0.21954  0.38428  1.0000
  N   N22       1.0  0.74576  0.25199  0.39085  1.0000
  C   C140      1.0  0.81141  0.30030  0.33534  1.0000
  C   C141      1.0  0.89110  0.36393  0.36585  1.0000
  N   N23       1.0  0.82526  0.31418  0.41827  1.0000
  C   C142      1.0  0.86326  0.34464  0.43675  1.0000
  C   C143      1.0  0.68294  0.20942  0.46567  1.0000
  H   H84       1.0  0.65158  0.18615  0.45445  1.0000
  H   H85       1.0  0.68280  0.23636  0.48962  1.0000
  H   H86       1.0  0.69575  0.19907  0.51723  1.0000
  C   C144      1.0  0.87344  0.35534  0.53146  1.0000
  H   H87       1.0  0.84849  0.33523  0.57497  1.0000
  H   H88       1.0  0.87995  0.38623  0.54336  1.0000
  H   H89       1.0  0.89988  0.35293  0.54927  1.0000
  N   N24       1.0  0.92882  0.39710  0.38069  1.0000
  H   H90       1.0  0.93104  0.41464  0.42998  1.0000
