data_image0
_chemical_formula_structural       CHC2NCHC2NO2NCNONCNOC2O2C2O2C2H2C2H2CHNCNCNCNC4N2O3C4N2O3C2NO2C2H2C2H2CHNCNCNCNC4N2O3C4N2O3C2NO2C2H2C2H2C2H2CNCNCNCNCNCNC4N2O4C4N2O4C4N2O4C2H2C2H2C2H2CNCNCNCNCNCNC4N2O4C4N2O4C4N2O4
_chemical_formula_sum              "C96 H24 N48 O48"
_cell_length_a       29.19
_cell_length_b       29.19
_cell_length_c       14.8023
_cell_angle_alpha    90
_cell_angle_beta     90
_cell_angle_gamma    120

_space_group_name_H-M_alt    "P 1"
_space_group_IT_number       1

loop_
  _space_group_symop_operation_xyz
  'x, y, z'

loop_
  _atom_site_type_symbol
  _atom_site_label
  _atom_site_symmetry_multiplicity
  _atom_site_fract_x
  _atom_site_fract_y
  _atom_site_fract_z
  _atom_site_occupancy
  C   C1        1.0  0.03823  0.27612  0.27340  1.0000
  H   H1        1.0  0.05781  0.28845  0.21292  1.0000
  C   C2        1.0  0.06693  0.28578  0.35475  1.0000
  C   C3        1.0  0.03815  0.26835  0.43733  1.0000
  N   N1        1.0  0.06271  0.27763  0.52313  1.0000
  C   C4        1.0  0.03822  0.77606  0.27340  1.0000
  H   H2        1.0  0.05781  0.78835  0.21291  1.0000
  C   C5        1.0  0.06693  0.78577  0.35475  1.0000
  C   C6        1.0  0.03815  0.76838  0.43734  1.0000
  N   N2        1.0  0.06271  0.77768  0.52314  1.0000
  O   O1        1.0  0.08762  0.25339  0.53286  1.0000
  O   O2        1.0  0.08763  0.75344  0.53289  1.0000
  N   N3        1.0  0.15032  0.36743  0.34957  1.0000
  C   C7        1.0  0.12275  0.31354  0.35193  1.0000
  N   N4        1.0  0.15025  0.28724  0.35744  1.0000
  O   O3        1.0  0.09180  0.32582  0.54037  1.0000
  N   N5        1.0  0.15032  0.86743  0.34961  1.0000
  C   C8        1.0  0.12275  0.81353  0.35193  1.0000
  N   N6        1.0  0.15025  0.78723  0.35740  1.0000
  O   O4        1.0  0.09180  0.82586  0.54035  1.0000
  C   C9        1.0  0.20423  0.39492  0.35120  1.0000
  C   C10       1.0  0.20414  0.31366  0.35864  1.0000
  O   O5        1.0  0.18674  0.26465  0.54497  1.0000
  O   O6        1.0  0.18526  0.42412  0.53761  1.0000
  C   C11       1.0  0.20423  0.89491  0.35126  1.0000
  C   C12       1.0  0.20414  0.81366  0.35861  1.0000
  O   O7        1.0  0.18675  0.76467  0.54496  1.0000
  O   O8        1.0  0.18526  0.92412  0.53765  1.0000
  C   C13       1.0  0.27492  0.24465  0.27858  1.0000
  C   C14       1.0  0.24699  0.27238  0.27944  1.0000
  H   H3        1.0  0.23766  0.28281  0.21890  1.0000
  H   H4        1.0  0.28502  0.23560  0.21747  1.0000
  C   C15       1.0  0.27535  0.03579  0.27599  1.0000
  C   C16       1.0  0.24704  0.48010  0.27462  1.0000
  H   H5        1.0  0.23784  0.46110  0.21338  1.0000
  H   H6        1.0  0.28568  0.05572  0.21562  1.0000
  C   C17       1.0  0.48249  0.24812  0.27301  1.0000
  H   H7        1.0  0.46316  0.24097  0.21229  1.0000
  N   N7        1.0  0.23057  0.36749  0.35621  1.0000
  C   C18       1.0  0.31646  0.11981  0.35610  1.0000
  N   N8        1.0  0.37034  0.14753  0.35355  1.0000
  C   C19       1.0  0.39766  0.20144  0.35074  1.0000
  N   N9        1.0  0.36995  0.22759  0.35219  1.0000
  C   C20       1.0  0.31610  0.20094  0.35544  1.0000
  N   N10       1.0  0.28990  0.14710  0.35797  1.0000
  C   C21       1.0  0.28813  0.22867  0.35983  1.0000
  C   C22       1.0  0.23208  0.28586  0.36159  1.0000
  C   C23       1.0  0.24617  0.27103  0.44419  1.0000
  C   C24       1.0  0.27357  0.24218  0.44332  1.0000
  N   N11       1.0  0.23520  0.28444  0.53030  1.0000
  N   N12       1.0  0.28519  0.22856  0.52873  1.0000
  O   O9        1.0  0.26179  0.17958  0.54085  1.0000
  O   O10       1.0  0.25861  0.33341  0.54279  1.0000
  O   O11       1.0  0.33380  0.24832  0.54235  1.0000
  C   C25       1.0  0.28865  0.06401  0.35834  1.0000
  C   C26       1.0  0.23213  0.45065  0.35565  1.0000
  C   C27       1.0  0.24588  0.47856  0.43933  1.0000
  C   C28       1.0  0.27320  0.03481  0.44064  1.0000
  N   N13       1.0  0.23391  0.45315  0.52461  1.0000
  N   N14       1.0  0.28351  0.05890  0.52694  1.0000
  O   O12       1.0  0.25978  0.08418  0.53890  1.0000
  O   O13       1.0  0.25752  0.42780  0.53728  1.0000
  O   O14       1.0  0.33187  0.08764  0.54267  1.0000
  C   C29       1.0  0.45346  0.22969  0.35415  1.0000
  C   C30       1.0  0.48189  0.24115  0.43711  1.0000
  N   N15       1.0  0.45702  0.22858  0.52286  1.0000
  O   O15       1.0  0.43152  0.25190  0.53742  1.0000
  O   O16       1.0  0.42834  0.17988  0.53502  1.0000
  C   C31       1.0  0.27490  0.74461  0.27858  1.0000
  C   C32       1.0  0.24696  0.77235  0.27942  1.0000
  H   H8        1.0  0.23761  0.78276  0.21888  1.0000
  H   H9        1.0  0.28498  0.73555  0.21747  1.0000
  C   C33       1.0  0.27534  0.53579  0.27594  1.0000
  C   C34       1.0  0.24705  0.98009  0.27467  1.0000
  H   H10       1.0  0.23787  0.96110  0.21343  1.0000
  H   H11       1.0  0.28566  0.55572  0.21557  1.0000
  C   C35       1.0  0.48249  0.74805  0.27301  1.0000
  H   H12       1.0  0.46316  0.74087  0.21228  1.0000
  N   N16       1.0  0.23057  0.86748  0.35623  1.0000
  C   C36       1.0  0.31645  0.61981  0.35605  1.0000
  N   N17       1.0  0.37034  0.64753  0.35353  1.0000
  C   C37       1.0  0.39766  0.70143  0.35076  1.0000
  N   N18       1.0  0.36995  0.72759  0.35223  1.0000
  C   C38       1.0  0.31611  0.70094  0.35546  1.0000
  N   N19       1.0  0.28990  0.64710  0.35794  1.0000
  C   C39       1.0  0.28813  0.72867  0.35984  1.0000
  C   C40       1.0  0.23208  0.78585  0.36157  1.0000
  C   C41       1.0  0.24618  0.77104  0.44417  1.0000
  C   C42       1.0  0.27358  0.74219  0.44332  1.0000
  N   N20       1.0  0.23522  0.78446  0.53028  1.0000
  N   N21       1.0  0.28520  0.72857  0.52873  1.0000
  O   O17       1.0  0.26181  0.67960  0.54087  1.0000
  O   O18       1.0  0.25863  0.83343  0.54277  1.0000
  O   O19       1.0  0.33381  0.74834  0.54235  1.0000
  C   C43       1.0  0.28864  0.56401  0.35828  1.0000
  C   C44       1.0  0.23213  0.95065  0.35571  1.0000
  C   C45       1.0  0.24588  0.97856  0.43938  1.0000
  C   C46       1.0  0.27321  0.53480  0.44059  1.0000
  N   N22       1.0  0.23390  0.95314  0.52467  1.0000
  N   N23       1.0  0.28352  0.55890  0.52689  1.0000
  O   O20       1.0  0.25981  0.58418  0.53886  1.0000
  O   O21       1.0  0.25751  0.92779  0.53733  1.0000
  O   O22       1.0  0.33188  0.58764  0.54261  1.0000
  C   C47       1.0  0.45346  0.72968  0.35415  1.0000
  C   C48       1.0  0.48190  0.74118  0.43712  1.0000
  N   N24       1.0  0.45703  0.72863  0.52288  1.0000
  O   O23       1.0  0.43153  0.75196  0.53741  1.0000
  O   O24       1.0  0.42834  0.67992  0.53506  1.0000
  C   C49       1.0  0.77492  0.24465  0.27858  1.0000
  C   C50       1.0  0.74699  0.27238  0.27944  1.0000
  H   H13       1.0  0.73765  0.28281  0.21890  1.0000
  H   H14       1.0  0.78502  0.23560  0.21747  1.0000
  C   C51       1.0  0.77535  0.03579  0.27599  1.0000
  C   C52       1.0  0.74704  0.48010  0.27462  1.0000
  H   H15       1.0  0.73784  0.46110  0.21338  1.0000
  H   H16       1.0  0.78568  0.05572  0.21562  1.0000
  C   C53       1.0  0.98249  0.24812  0.27301  1.0000
  C   C54       1.0  0.53823  0.27612  0.27340  1.0000
  H   H17       1.0  0.55781  0.28845  0.21292  1.0000
  H   H18       1.0  0.96316  0.24097  0.21229  1.0000
  C   C55       1.0  0.70423  0.39492  0.35120  1.0000
  N   N25       1.0  0.65032  0.36743  0.34957  1.0000
  C   C56       1.0  0.62275  0.31354  0.35193  1.0000
  N   N26       1.0  0.65025  0.28724  0.35744  1.0000
  C   C57       1.0  0.70414  0.31366  0.35864  1.0000
  N   N27       1.0  0.73057  0.36749  0.35621  1.0000
  C   C58       1.0  0.81646  0.11981  0.35610  1.0000
  N   N28       1.0  0.87034  0.14753  0.35355  1.0000
  C   C59       1.0  0.89766  0.20144  0.35074  1.0000
  N   N29       1.0  0.86995  0.22759  0.35219  1.0000
  C   C60       1.0  0.81610  0.20094  0.35544  1.0000
  N   N30       1.0  0.78990  0.14710  0.35797  1.0000
  C   C61       1.0  0.78813  0.22867  0.35983  1.0000
  C   C62       1.0  0.73208  0.28586  0.36159  1.0000
  C   C63       1.0  0.74617  0.27103  0.44419  1.0000
  C   C64       1.0  0.77356  0.24218  0.44332  1.0000
  N   N31       1.0  0.73520  0.28444  0.53030  1.0000
  N   N32       1.0  0.78519  0.22856  0.52873  1.0000
  O   O25       1.0  0.68674  0.26465  0.54497  1.0000
  O   O26       1.0  0.76179  0.17958  0.54085  1.0000
  O   O27       1.0  0.75861  0.33341  0.54279  1.0000
  O   O28       1.0  0.83380  0.24832  0.54235  1.0000
  C   C65       1.0  0.78865  0.06401  0.35834  1.0000
  C   C66       1.0  0.73213  0.45065  0.35565  1.0000
  C   C67       1.0  0.74588  0.47856  0.43933  1.0000
  C   C68       1.0  0.77320  0.03481  0.44064  1.0000
  N   N33       1.0  0.73391  0.45315  0.52461  1.0000
  N   N34       1.0  0.78351  0.05890  0.52694  1.0000
  O   O29       1.0  0.68526  0.42412  0.53761  1.0000
  O   O30       1.0  0.75978  0.08418  0.53890  1.0000
  O   O31       1.0  0.75752  0.42780  0.53728  1.0000
  O   O32       1.0  0.83187  0.08764  0.54267  1.0000
  C   C69       1.0  0.95346  0.22969  0.35415  1.0000
  C   C70       1.0  0.56693  0.28578  0.35475  1.0000
  C   C71       1.0  0.53815  0.26835  0.43733  1.0000
  C   C72       1.0  0.98189  0.24115  0.43711  1.0000
  N   N35       1.0  0.56271  0.27763  0.52313  1.0000
  N   N36       1.0  0.95702  0.22858  0.52286  1.0000
  O   O33       1.0  0.59180  0.32582  0.54037  1.0000
  O   O34       1.0  0.93152  0.25190  0.53742  1.0000
  O   O35       1.0  0.58762  0.25339  0.53286  1.0000
  O   O36       1.0  0.92834  0.17988  0.53502  1.0000
  C   C73       1.0  0.77490  0.74461  0.27858  1.0000
  C   C74       1.0  0.74696  0.77235  0.27942  1.0000
  H   H19       1.0  0.73761  0.78276  0.21888  1.0000
  H   H20       1.0  0.78498  0.73555  0.21747  1.0000
  C   C75       1.0  0.77533  0.53579  0.27594  1.0000
  C   C76       1.0  0.74705  0.98009  0.27467  1.0000
  H   H21       1.0  0.73787  0.96110  0.21343  1.0000
  H   H22       1.0  0.78566  0.55572  0.21557  1.0000
  C   C77       1.0  0.98249  0.74805  0.27301  1.0000
  C   C78       1.0  0.53822  0.77606  0.27340  1.0000
  H   H23       1.0  0.55781  0.78835  0.21291  1.0000
  H   H24       1.0  0.96316  0.74087  0.21228  1.0000
  C   C79       1.0  0.70423  0.89491  0.35126  1.0000
  N   N37       1.0  0.65032  0.86743  0.34961  1.0000
  C   C80       1.0  0.62275  0.81353  0.35193  1.0000
  N   N38       1.0  0.65025  0.78723  0.35740  1.0000
  C   C81       1.0  0.70413  0.81366  0.35861  1.0000
  N   N39       1.0  0.73057  0.86748  0.35623  1.0000
  C   C82       1.0  0.81645  0.61981  0.35605  1.0000
  N   N40       1.0  0.87034  0.64753  0.35353  1.0000
  C   C83       1.0  0.89766  0.70143  0.35076  1.0000
  N   N41       1.0  0.86995  0.72759  0.35223  1.0000
  C   C84       1.0  0.81610  0.70094  0.35546  1.0000
  N   N42       1.0  0.78990  0.64710  0.35794  1.0000
  C   C85       1.0  0.78813  0.72867  0.35984  1.0000
  C   C86       1.0  0.73207  0.78585  0.36157  1.0000
  C   C87       1.0  0.74618  0.77104  0.44417  1.0000
  C   C88       1.0  0.77358  0.74219  0.44332  1.0000
  N   N43       1.0  0.73521  0.78446  0.53028  1.0000
  N   N44       1.0  0.78520  0.72857  0.52873  1.0000
  O   O37       1.0  0.68675  0.76467  0.54496  1.0000
  O   O38       1.0  0.76181  0.67960  0.54087  1.0000
  O   O39       1.0  0.75863  0.83343  0.54277  1.0000
  O   O40       1.0  0.83381  0.74834  0.54235  1.0000
  C   C89       1.0  0.78864  0.56401  0.35828  1.0000
  C   C90       1.0  0.73213  0.95065  0.35571  1.0000
  C   C91       1.0  0.74587  0.97856  0.43938  1.0000
  C   C92       1.0  0.77321  0.53480  0.44059  1.0000
  N   N45       1.0  0.73390  0.95314  0.52467  1.0000
  N   N46       1.0  0.78352  0.55890  0.52689  1.0000
  O   O41       1.0  0.68525  0.92412  0.53765  1.0000
  O   O42       1.0  0.75981  0.58418  0.53886  1.0000
  O   O43       1.0  0.75751  0.92779  0.53733  1.0000
  O   O44       1.0  0.83188  0.58764  0.54261  1.0000
  C   C93       1.0  0.95346  0.72968  0.35415  1.0000
  C   C94       1.0  0.56693  0.78577  0.35475  1.0000
  C   C95       1.0  0.53815  0.76838  0.43734  1.0000
  C   C96       1.0  0.98189  0.74118  0.43712  1.0000
  N   N47       1.0  0.56271  0.77768  0.52314  1.0000
  N   N48       1.0  0.95703  0.72863  0.52288  1.0000
  O   O45       1.0  0.59180  0.82586  0.54035  1.0000
  O   O46       1.0  0.93153  0.75196  0.53741  1.0000
  O   O47       1.0  0.58763  0.75344  0.53289  1.0000
  O   O48       1.0  0.92834  0.67992  0.53506  1.0000
