data_image0
_chemical_formula_structural       C13H9C13H9C13H9C13H9C4HC6HO2C4HC6HO2C4HC6HO2CNCHNHCNCHNHCNCHNHC17H12C17H12C17H12C17H12CNCHNHCNCHNHCNCHNHC4HC6HO2C4HC6HO2C4HC6HO2
_chemical_formula_sum              "C192 H108 O12 N12"
_cell_length_a       68.5862
_cell_length_b       68.5695
_cell_length_c       14.9723
_cell_angle_alpha    90
_cell_angle_beta     90
_cell_angle_gamma    120.004

_space_group_name_H-M_alt    "P 1"
_space_group_IT_number       1

loop_
  _space_group_symop_operation_xyz
  'x, y, z'

loop_
  _atom_site_type_symbol
  _atom_site_label
  _atom_site_symmetry_multiplicity
  _atom_site_fract_x
  _atom_site_fract_y
  _atom_site_fract_z
  _atom_site_occupancy
  C   C1        1.0  0.92583  0.86462  0.32744  1.0000
  C   C2        1.0  0.94967  0.91286  0.32677  1.0000
  C   C3        1.0  0.92949  0.90043  0.27771  1.0000
  C   C4        1.0  0.91780  0.87673  0.27783  1.0000
  C   C5        1.0  0.96125  0.93633  0.32244  1.0000
  C   C6        1.0  0.05504  0.02530  0.32891  1.0000
  C   C7        1.0  0.09094  0.02950  0.28402  1.0000
  C   C8        1.0  0.12675  0.06163  0.33387  1.0000
  C   C9        1.0  0.11464  0.04157  0.28382  1.0000
  C   C10       1.0  0.97281  0.03727  0.33400  1.0000
  C   C11       1.0  0.93685  0.03535  0.30589  1.0000
  C   C12       1.0  0.93268  0.06843  0.33351  1.0000
  C   C13       1.0  0.92372  0.04587  0.30472  1.0000
  H   H1        1.0  0.90321  0.86837  0.24180  1.0000
  H   H2        1.0  0.92308  0.90855  0.24102  1.0000
  H   H3        1.0  0.92985  0.01907  0.28394  1.0000
  H   H4        1.0  0.08284  0.01508  0.24675  1.0000
  H   H5        1.0  0.12299  0.03546  0.24705  1.0000
  H   H6        1.0  0.90741  0.03676  0.28322  1.0000
  H   H7        1.0  0.04819  0.01815  0.27057  1.0000
  H   H8        1.0  0.96100  0.94330  0.26437  1.0000
  H   H9        1.0  0.98650  0.04453  0.29578  1.0000
  C   C14       1.0  0.50866  0.34171  0.31897  1.0000
  C   C15       1.0  0.47478  0.29506  0.31887  1.0000
  C   C16       1.0  0.49552  0.30259  0.27443  1.0000
  C   C17       1.0  0.51215  0.32549  0.27459  1.0000
  C   C18       1.0  0.45916  0.27211  0.31936  1.0000
  C   C19       1.0  0.36523  0.18527  0.33759  1.0000
  C   C20       1.0  0.32950  0.18098  0.28950  1.0000
  C   C21       1.0  0.29352  0.14883  0.33770  1.0000
  C   C22       1.0  0.30581  0.16889  0.28784  1.0000
  C   C23       1.0  0.45145  0.17795  0.34444  1.0000
  C   C24       1.0  0.48778  0.18600  0.28988  1.0000
  C   C25       1.0  0.50404  0.16254  0.33333  1.0000
  C   C26       1.0  0.50545  0.18122  0.28697  1.0000
  H   H10       1.0  0.52719  0.33006  0.24408  1.0000
  H   H11       1.0  0.49897  0.29138  0.24305  1.0000
  H   H12       1.0  0.48961  0.19988  0.25670  1.0000
  H   H13       1.0  0.33774  0.19543  0.25243  1.0000
  H   H14       1.0  0.29758  0.17501  0.25023  1.0000
  H   H15       1.0  0.51970  0.19202  0.25248  1.0000
  H   H16       1.0  0.37237  0.19236  0.27955  1.0000
  H   H17       1.0  0.45765  0.26355  0.26349  1.0000
  H   H18       1.0  0.44106  0.17392  0.29259  1.0000
  C   C27       1.0  0.64991  0.16753  0.31973  1.0000
  C   C28       1.0  0.69655  0.18024  0.31943  1.0000
  C   C29       1.0  0.68902  0.19346  0.27495  1.0000
  C   C30       1.0  0.66614  0.18723  0.27525  1.0000
  C   C31       1.0  0.71949  0.18755  0.31966  1.0000
  C   C32       1.0  0.80454  0.17880  0.33639  1.0000
  C   C33       1.0  0.80752  0.14560  0.30698  1.0000
  C   C34       1.0  0.84274  0.14536  0.33450  1.0000
  C   C35       1.0  0.82009  0.13449  0.30514  1.0000
  C   C36       1.0  0.81387  0.27434  0.34510  1.0000
  C   C37       1.0  0.80578  0.30259  0.29044  1.0000
  C   C38       1.0  0.82932  0.34232  0.33353  1.0000
  C   C39       1.0  0.81059  0.32505  0.28739  1.0000
  H   H19       1.0  0.66159  0.19771  0.24468  1.0000
  H   H20       1.0  0.70023  0.20811  0.24350  1.0000
  H   H21       1.0  0.79187  0.29053  0.25747  1.0000
  H   H22       1.0  0.79119  0.13712  0.28508  1.0000
  H   H23       1.0  0.81239  0.11821  0.28283  1.0000
  H   H24       1.0  0.79979  0.32851  0.25297  1.0000
  H   H25       1.0  0.79504  0.17636  0.28258  1.0000
  H   H26       1.0  0.72803  0.19469  0.26385  1.0000
  H   H27       1.0  0.81827  0.26808  0.29402  1.0000
  C   C40       1.0  0.82423  0.48309  0.31873  1.0000
  C   C41       1.0  0.81125  0.51680  0.31895  1.0000
  C   C42       1.0  0.79810  0.49605  0.27442  1.0000
  C   C43       1.0  0.80447  0.47950  0.27443  1.0000
  C   C44       1.0  0.80377  0.53230  0.31988  1.0000
  C   C45       1.0  0.81123  0.62622  0.33862  1.0000
  C   C46       1.0  0.84276  0.66193  0.29084  1.0000
  C   C47       1.0  0.84634  0.69791  0.33725  1.0000
  C   C48       1.0  0.85430  0.68562  0.28856  1.0000
  C   C49       1.0  0.71745  0.54018  0.34477  1.0000
  C   C50       1.0  0.68917  0.50392  0.28963  1.0000
  C   C51       1.0  0.64945  0.48766  0.33299  1.0000
  C   C52       1.0  0.66672  0.48627  0.28657  1.0000
  H   H28       1.0  0.79403  0.46444  0.24399  1.0000
  H   H29       1.0  0.78339  0.49252  0.24326  1.0000
  H   H30       1.0  0.70122  0.50209  0.25649  1.0000
  H   H31       1.0  0.84908  0.65367  0.25457  1.0000
  H   H32       1.0  0.86870  0.69383  0.25133  1.0000
  H   H33       1.0  0.66326  0.47202  0.25199  1.0000
  H   H34       1.0  0.81137  0.61903  0.28094  1.0000
  H   H35       1.0  0.79666  0.53378  0.26414  1.0000
  H   H36       1.0  0.72388  0.55063  0.29311  1.0000
  C   C53       1.0  0.26954  0.13631  0.33415  1.0000
  C   C54       1.0  0.22203  0.11145  0.32941  1.0000
  C   C55       1.0  0.23418  0.11789  0.24764  1.0000
  C   C56       1.0  0.25797  0.13049  0.25154  1.0000
  H   H37       1.0  0.26705  0.13513  0.19346  1.0000
  C   C57       1.0  0.19825  0.09905  0.32888  1.0000
  C   C58       1.0  0.15074  0.07418  0.33146  1.0000
  C   C59       1.0  0.16255  0.07999  0.24939  1.0000
  C   C60       1.0  0.18635  0.09259  0.24657  1.0000
  C   C61       1.0  0.19853  0.09892  0.16536  1.0000
  C   C62       1.0  0.22224  0.11155  0.16590  1.0000
  H   H38       1.0  0.15364  0.07533  0.19090  1.0000
  O   O1        1.0  0.18773  0.09310  0.08566  1.0000
  O   O2        1.0  0.23327  0.11735  0.08669  1.0000
  C   C63       1.0  0.85557  0.13416  0.33108  1.0000
  C   C64       1.0  0.88094  0.11198  0.32720  1.0000
  C   C65       1.0  0.86780  0.11054  0.25148  1.0000
  C   C66       1.0  0.85520  0.12174  0.25490  1.0000
  H   H39       1.0  0.84587  0.12114  0.20057  1.0000
  C   C67       1.0  0.89369  0.10097  0.32714  1.0000
  C   C68       1.0  0.91947  0.07922  0.33065  1.0000
  C   C69       1.0  0.90644  0.07757  0.25466  1.0000
  C   C70       1.0  0.89346  0.08838  0.25138  1.0000
  C   C71       1.0  0.88045  0.08710  0.17596  1.0000
  C   C72       1.0  0.86773  0.09809  0.17600  1.0000
  H   H40       1.0  0.90676  0.06871  0.20024  1.0000
  O   O3        1.0  0.87988  0.07530  0.10244  1.0000
  O   O4        1.0  0.85544  0.09641  0.10252  1.0000
  C   C73       1.0  0.85770  0.72186  0.33285  1.0000
  C   C74       1.0  0.88020  0.76934  0.32637  1.0000
  C   C75       1.0  0.87425  0.75700  0.24504  1.0000
  C   C76       1.0  0.86315  0.73322  0.24979  1.0000
  H   H41       1.0  0.85856  0.72398  0.19208  1.0000
  C   C77       1.0  0.89155  0.79311  0.32495  1.0000
  C   C78       1.0  0.91426  0.84063  0.32583  1.0000
  C   C79       1.0  0.90795  0.82863  0.24420  1.0000
  C   C80       1.0  0.89672  0.80482  0.24223  1.0000
  C   C81       1.0  0.89060  0.79245  0.16148  1.0000
  C   C82       1.0  0.87955  0.76874  0.16286  1.0000
  H   H42       1.0  0.91204  0.83742  0.18540  1.0000
  O   O5        1.0  0.89529  0.80307  0.08140  1.0000
  O   O6        1.0  0.87406  0.75751  0.08407  1.0000
  C   C83       1.0  0.53486  0.16106  0.25321  1.0000
  N   N1        1.0  0.55402  0.15996  0.25503  1.0000
  C   C84       1.0  0.61603  0.16394  0.24559  1.0000
  H   H43       1.0  0.52986  0.16428  0.19342  1.0000
  N   N2        1.0  0.59521  0.16146  0.25118  1.0000
  H   H44       1.0  0.62384  0.16777  0.18478  1.0000
  C   C85       1.0  0.83092  0.37464  0.25313  1.0000
  N   N3        1.0  0.83201  0.39489  0.25480  1.0000
  C   C86       1.0  0.82798  0.45288  0.24480  1.0000
  H   H45       1.0  0.82770  0.36639  0.19339  1.0000
  N   N4        1.0  0.83049  0.43456  0.25059  1.0000
  H   H46       1.0  0.82418  0.45685  0.18391  1.0000
  C   C87       1.0  0.61715  0.45686  0.25278  1.0000
  N   N5        1.0  0.59690  0.43769  0.25455  1.0000
  C   C88       1.0  0.53892  0.37563  0.24491  1.0000
  H   H47       1.0  0.62536  0.46189  0.19299  1.0000
  N   N6        1.0  0.55724  0.39646  0.25058  1.0000
  H   H48       1.0  0.53495  0.36784  0.18408  1.0000
  C   C89       1.0  0.94597  0.87700  0.37669  1.0000
  C   C90       1.0  0.95782  0.90071  0.37567  1.0000
  C   C91       1.0  0.97198  0.95008  0.39162  1.0000
  C   C92       1.0  0.98287  0.97333  0.38542  1.0000
  C   C93       1.0  0.97042  0.98465  0.38147  1.0000
  C   C94       1.0  0.98129  0.00846  0.38128  1.0000
  C   C95       1.0  0.00511  0.02086  0.38643  1.0000
  C   C96       1.0  0.01787  0.00986  0.38957  1.0000
  C   C97       1.0  0.00659  0.98608  0.38991  1.0000
  C   C98       1.0  0.04109  0.02223  0.39741  1.0000
  C   C99       1.0  0.07851  0.03712  0.33386  1.0000
  C   C100      1.0  0.09065  0.05730  0.38345  1.0000
  C   C101      1.0  0.11436  0.06921  0.38421  1.0000
  C   C102      1.0  0.96830  0.01890  0.38207  1.0000
  C   C103      1.0  0.95942  0.04714  0.33575  1.0000
  C   C104      1.0  0.96853  0.06969  0.36402  1.0000
  C   C105      1.0  0.95528  0.08010  0.36361  1.0000
  H   H49       1.0  0.95259  0.86884  0.41169  1.0000
  H   H50       1.0  0.97268  0.90899  0.41000  1.0000
  H   H51       1.0  0.01572  0.97799  0.39461  1.0000
  H   H52       1.0  0.95317  0.97538  0.38007  1.0000
  H   H53       1.0  0.01327  0.03810  0.38926  1.0000
  H   H54       1.0  0.12252  0.08395  0.41945  1.0000
  H   H55       1.0  0.08237  0.06379  0.41831  1.0000
  H   H56       1.0  0.96255  0.09656  0.38329  1.0000
  H   H57       1.0  0.98490  0.07876  0.38508  1.0000
  H   H58       1.0  0.04732  0.02881  0.45695  1.0000
  H   H59       1.0  0.97224  0.94362  0.45077  1.0000
  H   H60       1.0  0.95445  0.01186  0.41959  1.0000
  C   C106      1.0  0.48781  0.33418  0.36290  1.0000
  C   C107      1.0  0.47106  0.31124  0.36236  1.0000
  C   C108      1.0  0.44857  0.26045  0.39323  1.0000
  C   C109      1.0  0.43714  0.23714  0.39506  1.0000
  C   C110      1.0  0.44951  0.22576  0.39904  1.0000
  C   C111      1.0  0.43853  0.20202  0.40364  1.0000
  C   C112      1.0  0.41474  0.18962  0.40551  1.0000
  C   C113      1.0  0.40206  0.20073  0.40195  1.0000
  C   C114      1.0  0.41340  0.22452  0.39735  1.0000
  C   C115      1.0  0.37880  0.18843  0.40761  1.0000
  C   C116      1.0  0.34174  0.17338  0.34067  1.0000
  C   C117      1.0  0.32942  0.15317  0.38993  1.0000
  C   C118      1.0  0.30571  0.14124  0.38919  1.0000
  C   C119      1.0  0.45154  0.19176  0.40829  1.0000
  C   C120      1.0  0.46815  0.17227  0.33983  1.0000
  C   C121      1.0  0.46643  0.15353  0.38609  1.0000
  C   C122      1.0  0.48420  0.14879  0.38294  1.0000
  H   H61       1.0  0.48457  0.34540  0.39524  1.0000
  H   H62       1.0  0.45619  0.30644  0.39465  1.0000
  H   H63       1.0  0.40433  0.23271  0.39628  1.0000
  H   H64       1.0  0.46679  0.23492  0.39847  1.0000
  H   H65       1.0  0.40663  0.17241  0.41024  1.0000
  H   H66       1.0  0.29743  0.12650  0.42440  1.0000
  H   H67       1.0  0.33758  0.14670  0.42574  1.0000
  H   H68       1.0  0.48245  0.13508  0.41710  1.0000
  H   H69       1.0  0.45241  0.14338  0.42311  1.0000
  H   H70       1.0  0.37221  0.18184  0.46674  1.0000
  H   H71       1.0  0.45103  0.26836  0.45136  1.0000
  H   H72       1.0  0.46333  0.19719  0.45560  1.0000
  C   C123      1.0  0.65744  0.15422  0.36374  1.0000
  C   C124      1.0  0.68037  0.16038  0.36315  1.0000
  C   C125      1.0  0.73123  0.18848  0.39312  1.0000
  C   C126      1.0  0.75453  0.20051  0.39469  1.0000
  C   C127      1.0  0.76571  0.22426  0.39918  1.0000
  C   C128      1.0  0.78944  0.23722  0.40290  1.0000
  C   C129      1.0  0.80204  0.22602  0.40341  1.0000
  C   C130      1.0  0.79118  0.20224  0.39919  1.0000
  C   C131      1.0  0.76737  0.18960  0.39548  1.0000
  C   C132      1.0  0.80389  0.19166  0.40289  1.0000
  C   C133      1.0  0.81714  0.16797  0.33850  1.0000
  C   C134      1.0  0.83983  0.17895  0.36736  1.0000
  C   C135      1.0  0.85235  0.16777  0.36594  1.0000
  C   C136      1.0  0.79951  0.26048  0.40736  1.0000
  C   C137      1.0  0.81952  0.29670  0.34039  1.0000
  C   C138      1.0  0.83830  0.31373  0.38638  1.0000
  C   C139      1.0  0.84307  0.33624  0.38309  1.0000
  H   H73       1.0  0.64622  0.13978  0.39619  1.0000
  H   H74       1.0  0.68516  0.15030  0.39545  1.0000
  H   H75       1.0  0.75932  0.17236  0.39397  1.0000
  H   H76       1.0  0.75641  0.23222  0.39940  1.0000
  H   H77       1.0  0.81925  0.23529  0.40727  1.0000
  H   H78       1.0  0.86882  0.17643  0.38586  1.0000
  H   H79       1.0  0.84761  0.19534  0.38838  1.0000
  H   H80       1.0  0.85681  0.34821  0.41706  1.0000
  H   H81       1.0  0.84847  0.30985  0.42331  1.0000
  H   H82       1.0  0.81320  0.19423  0.45730  1.0000
  H   H83       1.0  0.72337  0.18296  0.45131  1.0000
  H   H84       1.0  0.79380  0.26681  0.45375  1.0000
  C   C140      1.0  0.83748  0.50395  0.36268  1.0000
  C   C141      1.0  0.83119  0.52062  0.36231  1.0000
  C   C142      1.0  0.80272  0.54287  0.39382  1.0000
  C   C143      1.0  0.79087  0.55432  0.39595  1.0000
  C   C144      1.0  0.76712  0.54196  0.39975  1.0000
  C   C145      1.0  0.75439  0.55296  0.40437  1.0000
  C   C146      1.0  0.76580  0.57676  0.40642  1.0000
  C   C147      1.0  0.78959  0.58943  0.40301  1.0000
  C   C148      1.0  0.80202  0.57807  0.39839  1.0000
  C   C149      1.0  0.80057  0.61269  0.40845  1.0000
  C   C150      1.0  0.82279  0.64971  0.34136  1.0000
  C   C151      1.0  0.81474  0.66205  0.38944  1.0000
  C   C152      1.0  0.82646  0.68576  0.38822  1.0000
  C   C153      1.0  0.73112  0.53997  0.40860  1.0000
  C   C154      1.0  0.69507  0.52352  0.33985  1.0000
  C   C155      1.0  0.67805  0.52522  0.38617  1.0000
  C   C156      1.0  0.65554  0.50747  0.38283  1.0000
  H   H85       1.0  0.85196  0.50725  0.39500  1.0000
  H   H86       1.0  0.84121  0.53550  0.39469  1.0000
  H   H87       1.0  0.81927  0.58712  0.39733  1.0000
  H   H88       1.0  0.75899  0.52468  0.39897  1.0000
  H   H89       1.0  0.75671  0.58488  0.41104  1.0000
  H   H90       1.0  0.81989  0.69407  0.42249  1.0000
  H   H91       1.0  0.80001  0.65390  0.42469  1.0000
  H   H92       1.0  0.64359  0.50920  0.41706  1.0000
  H   H93       1.0  0.68194  0.53923  0.42337  1.0000
  H   H94       1.0  0.80033  0.61932  0.46722  1.0000
  H   H95       1.0  0.80837  0.54056  0.45175  1.0000
  H   H96       1.0  0.72468  0.52814  0.45577  1.0000
  C   C157      1.0  0.25639  0.12907  0.41274  1.0000
  N   N7        1.0  0.23359  0.11730  0.40779  1.0000
  C   C158      1.0  0.16365  0.08142  0.41063  1.0000
  H   H97       1.0  0.26375  0.13295  0.47442  1.0000
  N   N8        1.0  0.18646  0.09321  0.40672  1.0000
  H   H98       1.0  0.15611  0.07756  0.47196  1.0000
  C   C159      1.0  0.86917  0.13497  0.40358  1.0000
  N   N9        1.0  0.88103  0.12404  0.39941  1.0000
  C   C160      1.0  0.91897  0.09216  0.40324  1.0000
  H   H99       1.0  0.86998  0.14339  0.46100  1.0000
  N   N10       1.0  0.90633  0.10227  0.39926  1.0000
  H   H100      1.0  0.92776  0.09379  0.46052  1.0000
  C   C161      1.0  0.86380  0.73518  0.41100  1.0000
  N   N11       1.0  0.87476  0.75797  0.40519  1.0000
  C   C162      1.0  0.90883  0.82790  0.40545  1.0000
  H   H101      1.0  0.86051  0.72796  0.47292  1.0000
  N   N12       1.0  0.89777  0.80508  0.40236  1.0000
  H   H102      1.0  0.91275  0.83559  0.46650  1.0000
  C   C163      1.0  0.52263  0.15858  0.33253  1.0000
  C   C164      1.0  0.56249  0.15609  0.33062  1.0000
  C   C165      1.0  0.55072  0.15257  0.41248  1.0000
  C   C166      1.0  0.53070  0.15378  0.41186  1.0000
  H   H103      1.0  0.52259  0.15241  0.47088  1.0000
  C   C167      1.0  0.58340  0.15679  0.32863  1.0000
  C   C168      1.0  0.62692  0.16211  0.32267  1.0000
  C   C169      1.0  0.61467  0.15647  0.40383  1.0000
  C   C170      1.0  0.59289  0.15393  0.40843  1.0000
  C   C171      1.0  0.58072  0.14957  0.48931  1.0000
  C   C172      1.0  0.55983  0.14892  0.49133  1.0000
  H   H104      1.0  0.62227  0.15560  0.46129  1.0000
  O   O7        1.0  0.58916  0.14663  0.56673  1.0000
  O   O8        1.0  0.54903  0.14537  0.57060  1.0000
  C   C173      1.0  0.83330  0.36487  0.33260  1.0000
  C   C174      1.0  0.83583  0.40723  0.33038  1.0000
  C   C175      1.0  0.83927  0.39898  0.41237  1.0000
  C   C176      1.0  0.83807  0.37775  0.41191  1.0000
  H   H105      1.0  0.83935  0.37098  0.47100  1.0000
  C   C177      1.0  0.83511  0.42743  0.32819  1.0000
  C   C178      1.0  0.82975  0.46560  0.32181  1.0000
  C   C179      1.0  0.83530  0.45899  0.40314  1.0000
  C   C180      1.0  0.83788  0.43977  0.40795  1.0000
  C   C181      1.0  0.84218  0.43196  0.48898  1.0000
  C   C182      1.0  0.84285  0.41174  0.49119  1.0000
  H   H106      1.0  0.83613  0.46747  0.46052  1.0000
  O   O9        1.0  0.84502  0.44333  0.56636  1.0000
  O   O10       1.0  0.84632  0.40448  0.57059  1.0000
  C   C183      1.0  0.62691  0.46906  0.33217  1.0000
  C   C184      1.0  0.58457  0.42918  0.33015  1.0000
  C   C185      1.0  0.59282  0.44092  0.41207  1.0000
  C   C186      1.0  0.61405  0.46095  0.41151  1.0000
  H   H107      1.0  0.62079  0.46904  0.47055  1.0000
  C   C187      1.0  0.56437  0.40825  0.32808  1.0000
  C   C188      1.0  0.52621  0.36471  0.32197  1.0000
  C   C189      1.0  0.53281  0.37693  0.40320  1.0000
  C   C190      1.0  0.55204  0.39872  0.40789  1.0000
  C   C191      1.0  0.55985  0.41087  0.48883  1.0000
  C   C192      1.0  0.58007  0.43177  0.49091  1.0000
  H   H108      1.0  0.52434  0.36930  0.46064  1.0000
  O   O11       1.0  0.54848  0.40239  0.56623  1.0000
  O   O12       1.0  0.58732  0.44254  0.57024  1.0000
