data_image0
_chemical_formula_structural       C6H6N2C8H5CN2HNC8H5CN2HNC8H5CN2HNC2NC2NHCH3CHC2NC2NHCH3CHC2NC2NHCH3CHC2HC6H3CHC2HC6H3CHC2HC6H3CHC12H5CNC2NHN2C10H6CNCN2C10H6CNCN2C10H6CNCN2C2HC6H3CHC2HC6H3CHC2HC6H3CHC2NC2NHCH3CHC2NC2NHCH3CHC2NC2NHCH3CH
_chemical_formula_sum              "C174 H108 N36"
_cell_length_a       67.2741
_cell_length_b       67.284
_cell_length_c       15.0043
_cell_angle_alpha    90
_cell_angle_beta     90
_cell_angle_gamma    119.981

_space_group_name_H-M_alt    "P 1"
_space_group_IT_number       1

loop_
  _space_group_symop_operation_xyz
  'x, y, z'

loop_
  _atom_site_type_symbol
  _atom_site_label
  _atom_site_symmetry_multiplicity
  _atom_site_fract_x
  _atom_site_fract_y
  _atom_site_fract_z
  _atom_site_occupancy
  C   C1        1.0  0.96827  0.01937  0.33066  1.0000
  C   C2        1.0  0.93509  0.91119  0.32732  1.0000
  C   C3        1.0  0.94657  0.93529  0.32902  1.0000
  C   C4        1.0  0.94393  0.00708  0.33134  1.0000
  C   C5        1.0  0.93127  0.01856  0.33005  1.0000
  C   C6        1.0  0.94251  0.04270  0.32667  1.0000
  H   H1        1.0  0.91754  0.90233  0.32762  1.0000
  H   H2        1.0  0.93682  0.94307  0.32932  1.0000
  H   H3        1.0  0.93504  0.98953  0.33300  1.0000
  H   H4        1.0  0.91372  0.00912  0.33073  1.0000
  H   H5        1.0  0.08793  0.01479  0.32722  1.0000
  H   H6        1.0  0.04719  0.99332  0.32897  1.0000
  N   N1        1.0  0.97067  0.98450  0.33143  1.0000
  N   N2        1.0  0.92966  0.05260  0.32722  1.0000
  C   C7        1.0  0.45446  0.26451  0.32181  1.0000
  C   C8        1.0  0.36901  0.20545  0.30593  1.0000
  C   C9        1.0  0.34487  0.19403  0.30691  1.0000
  C   C10       1.0  0.48915  0.19168  0.31549  1.0000
  C   C11       1.0  0.47685  0.20345  0.31254  1.0000
  C   C12       1.0  0.47849  0.27612  0.33662  1.0000
  C   C13       1.0  0.49144  0.30020  0.33914  1.0000
  C   C14       1.0  0.48089  0.31353  0.32569  1.0000
  H   H7        1.0  0.33670  0.20317  0.29520  1.0000
  H   H8        1.0  0.48597  0.22083  0.30327  1.0000
  H   H9        1.0  0.50660  0.20076  0.30801  1.0000
  H   H10       1.0  0.48694  0.26721  0.34687  1.0000
  H   H11       1.0  0.50874  0.30795  0.35041  1.0000
  C   C15       1.0  0.44144  0.24006  0.32042  1.0000
  N   N3        1.0  0.45199  0.22733  0.32090  1.0000
  N   N4        1.0  0.41813  0.22839  0.31997  1.0000
  H   H12       1.0  0.37765  0.22268  0.29291  1.0000
  N   N5        1.0  0.49444  0.33609  0.32948  1.0000
  C   C16       1.0  0.72586  0.18974  0.32193  1.0000
  C   C17       1.0  0.78495  0.16336  0.30579  1.0000
  C   C18       1.0  0.79638  0.15065  0.30677  1.0000
  C   C19       1.0  0.79866  0.29723  0.31544  1.0000
  C   C20       1.0  0.78689  0.27316  0.31248  1.0000
  C   C21       1.0  0.71423  0.20213  0.33700  1.0000
  C   C22       1.0  0.69015  0.19099  0.33978  1.0000
  C   C23       1.0  0.67683  0.16714  0.32629  1.0000
  H   H13       1.0  0.78725  0.13336  0.29508  1.0000
  H   H14       1.0  0.76951  0.26490  0.30321  1.0000
  H   H15       1.0  0.78957  0.30559  0.30797  1.0000
  H   H16       1.0  0.72314  0.21948  0.34733  1.0000
  H   H17       1.0  0.68239  0.20054  0.35129  1.0000
  C   C24       1.0  0.75030  0.20117  0.32040  1.0000
  N   N6        1.0  0.76302  0.22443  0.32087  1.0000
  N   N7        1.0  0.76199  0.18953  0.31990  1.0000
  H   H18       1.0  0.76771  0.15477  0.29277  1.0000
  N   N8        1.0  0.65426  0.15809  0.33045  1.0000
  C   C25       1.0  0.80049  0.53580  0.32197  1.0000
  C   C26       1.0  0.82687  0.62125  0.30589  1.0000
  C   C27       1.0  0.83957  0.64538  0.30687  1.0000
  C   C28       1.0  0.69299  0.50116  0.31568  1.0000
  C   C29       1.0  0.71706  0.51345  0.31272  1.0000
  C   C30       1.0  0.78809  0.51179  0.33700  1.0000
  C   C31       1.0  0.79923  0.49884  0.33964  1.0000
  C   C32       1.0  0.82309  0.50937  0.32612  1.0000
  H   H19       1.0  0.85688  0.65354  0.29516  1.0000
  H   H20       1.0  0.72533  0.50432  0.30353  1.0000
  H   H21       1.0  0.68463  0.48370  0.30826  1.0000
  H   H22       1.0  0.77074  0.50335  0.34728  1.0000
  H   H23       1.0  0.78968  0.48154  0.35107  1.0000
  C   C33       1.0  0.78906  0.54883  0.32050  1.0000
  N   N9        1.0  0.76580  0.53829  0.32099  1.0000
  N   N10       1.0  0.80070  0.57214  0.32000  1.0000
  H   H24       1.0  0.83546  0.61260  0.29284  1.0000
  N   N11       1.0  0.83213  0.49583  0.33010  1.0000
  C   C34       1.0  0.15212  0.07227  0.30443  1.0000
  C   C35       1.0  0.16801  0.07885  0.23267  1.0000
  N   N12       1.0  0.19077  0.09210  0.25046  1.0000
  C   C36       1.0  0.19970  0.09984  0.33268  1.0000
  C   C37       1.0  0.26142  0.12899  0.28511  1.0000
  N   N13       1.0  0.23829  0.11752  0.27611  1.0000
  H   H25       1.0  0.27120  0.13150  0.22951  1.0000
  C   C38       1.0  0.16213  0.07248  0.13781  1.0000
  H   H26       1.0  0.14370  0.06283  0.12564  1.0000
  H   H27       1.0  0.16952  0.06208  0.11593  1.0000
  H   H28       1.0  0.16930  0.08801  0.09720  1.0000
  C   C39       1.0  0.12898  0.05677  0.29382  1.0000
  H   H29       1.0  0.12444  0.04235  0.26044  1.0000
  C   C40       1.0  0.91800  0.07947  0.30453  1.0000
  C   C41       1.0  0.91146  0.08881  0.23276  1.0000
  N   N14       1.0  0.89823  0.09835  0.25050  1.0000
  C   C42       1.0  0.89049  0.09956  0.33270  1.0000
  C   C43       1.0  0.86141  0.13220  0.28502  1.0000
  N   N15       1.0  0.87286  0.12052  0.27607  1.0000
  H   H30       1.0  0.85893  0.13949  0.22943  1.0000
  C   C44       1.0  0.91784  0.08928  0.13791  1.0000
  H   H31       1.0  0.92746  0.08048  0.12578  1.0000
  H   H32       1.0  0.92826  0.10705  0.11604  1.0000
  H   H33       1.0  0.90231  0.08095  0.09727  1.0000
  C   C45       1.0  0.93350  0.07181  0.29400  1.0000
  H   H34       1.0  0.94792  0.08166  0.26063  1.0000
  C   C46       1.0  0.91078  0.83813  0.30448  1.0000
  C   C47       1.0  0.90144  0.82225  0.23272  1.0000
  N   N16       1.0  0.89190  0.79949  0.25048  1.0000
  C   C48       1.0  0.89070  0.79055  0.33268  1.0000
  C   C49       1.0  0.85803  0.72884  0.28507  1.0000
  N   N17       1.0  0.86972  0.75197  0.27609  1.0000
  H   H35       1.0  0.85073  0.71908  0.22948  1.0000
  C   C50       1.0  0.90095  0.82814  0.13787  1.0000
  H   H36       1.0  0.90976  0.84657  0.12572  1.0000
  H   H37       1.0  0.88317  0.82080  0.11603  1.0000
  H   H38       1.0  0.90928  0.82094  0.09722  1.0000
  C   C51       1.0  0.91843  0.86127  0.29392  1.0000
  H   H39       1.0  0.90858  0.86584  0.26055  1.0000
  C   C52       1.0  0.54281  0.14097  0.27221  1.0000
  C   C53       1.0  0.52528  0.14637  0.28570  1.0000
  H   H40       1.0  0.51746  0.14861  0.23107  1.0000
  C   C54       1.0  0.57437  0.13732  0.33621  1.0000
  C   C55       1.0  0.61538  0.13631  0.31516  1.0000
  C   C56       1.0  0.60190  0.13431  0.23980  1.0000
  C   C57       1.0  0.58137  0.13504  0.24924  1.0000
  C   C58       1.0  0.56842  0.13483  0.17482  1.0000
  C   C59       1.0  0.54935  0.13787  0.18619  1.0000
  H   H41       1.0  0.57333  0.13344  0.11162  1.0000
  H   H42       1.0  0.54080  0.13861  0.13100  1.0000
  H   H43       1.0  0.60774  0.13371  0.17731  1.0000
  C   C60       1.0  0.63699  0.13905  0.30515  1.0000
  H   H44       1.0  0.63905  0.12762  0.27050  1.0000
  C   C61       1.0  0.84942  0.40160  0.27216  1.0000
  C   C62       1.0  0.84400  0.37867  0.28564  1.0000
  H   H45       1.0  0.84178  0.36863  0.23097  1.0000
  C   C63       1.0  0.85304  0.43680  0.33617  1.0000
  C   C64       1.0  0.85396  0.47876  0.31506  1.0000
  C   C65       1.0  0.85601  0.46731  0.23972  1.0000
  C   C66       1.0  0.85532  0.44607  0.24918  1.0000
  C   C67       1.0  0.85558  0.43335  0.17478  1.0000
  C   C68       1.0  0.85256  0.41125  0.18615  1.0000
  H   H46       1.0  0.85691  0.43962  0.11157  1.0000
  H   H47       1.0  0.85177  0.40195  0.13095  1.0000
  H   H48       1.0  0.85662  0.47374  0.17722  1.0000
  C   C69       1.0  0.85119  0.49760  0.30497  1.0000
  H   H49       1.0  0.86270  0.51116  0.27090  1.0000
  C   C70       1.0  0.58860  0.44761  0.27214  1.0000
  C   C71       1.0  0.61152  0.46512  0.28564  1.0000
  H   H50       1.0  0.62158  0.47296  0.23101  1.0000
  C   C72       1.0  0.55342  0.41600  0.33607  1.0000
  C   C73       1.0  0.51144  0.37500  0.31490  1.0000
  C   C74       1.0  0.52291  0.38850  0.23959  1.0000
  C   C75       1.0  0.54414  0.40904  0.24908  1.0000
  C   C76       1.0  0.55686  0.42203  0.17471  1.0000
  C   C77       1.0  0.57895  0.44110  0.18612  1.0000
  H   H51       1.0  0.55056  0.41714  0.11151  1.0000
  H   H52       1.0  0.58823  0.44967  0.13094  1.0000
  H   H53       1.0  0.51645  0.38270  0.17709  1.0000
  C   C78       1.0  0.49263  0.35338  0.30472  1.0000
  H   H54       1.0  0.47896  0.35136  0.27153  1.0000
  C   C79       1.0  0.97086  0.94846  0.33057  1.0000
  C   C80       1.0  0.04176  0.02194  0.33056  1.0000
  C   C81       1.0  0.98316  0.93642  0.33126  1.0000
  C   C82       1.0  0.97168  0.91228  0.32993  1.0000
  C   C83       1.0  0.94754  0.89939  0.32651  1.0000
  C   C84       1.0  0.96676  0.05514  0.32743  1.0000
  C   C85       1.0  0.97939  0.04366  0.32913  1.0000
  C   C86       1.0  0.05379  0.04627  0.33143  1.0000
  C   C87       1.0  0.07792  0.05894  0.33007  1.0000
  C   C88       1.0  0.09084  0.04772  0.32643  1.0000
  C   C89       1.0  0.07906  0.02347  0.32708  1.0000
  C   C90       1.0  0.05495  0.01083  0.32881  1.0000
  H   H55       1.0  0.98113  0.90417  0.33065  1.0000
  H   H56       1.0  0.99691  0.05340  0.32942  1.0000
  H   H57       1.0  0.97544  0.07269  0.32776  1.0000
  H   H58       1.0  0.04513  0.05517  0.33328  1.0000
  H   H59       1.0  0.08602  0.07649  0.33091  1.0000
  C   C91       1.0  0.01730  0.00906  0.33149  1.0000
  N   N18       1.0  0.00449  0.01954  0.33143  1.0000
  C   C92       1.0  0.98115  0.00778  0.33154  1.0000
  C   C93       1.0  0.98244  0.97292  0.33149  1.0000
  N   N19       1.0  0.00573  0.98572  0.33139  1.0000
  H   H60       1.0  0.00071  0.94506  0.33296  1.0000
  N   N20       1.0  0.11358  0.06057  0.32702  1.0000
  N   N21       1.0  0.93765  0.87665  0.32710  1.0000
  C   C94       1.0  0.45264  0.19170  0.32190  1.0000
  C   C95       1.0  0.38105  0.19346  0.32107  1.0000
  C   C96       1.0  0.33207  0.17037  0.32531  1.0000
  C   C97       1.0  0.34380  0.15815  0.33941  1.0000
  C   C98       1.0  0.36792  0.16954  0.33724  1.0000
  C   C99       1.0  0.44124  0.16753  0.33258  1.0000
  C   C100      1.0  0.45358  0.15568  0.33561  1.0000
  C   C101      1.0  0.47771  0.16772  0.32919  1.0000
  C   C102      1.0  0.45696  0.30222  0.31098  1.0000
  C   C103      1.0  0.44397  0.27807  0.30939  1.0000
  H   H61       1.0  0.33483  0.14083  0.35069  1.0000
  H   H62       1.0  0.37574  0.16006  0.34839  1.0000
  H   H63       1.0  0.42379  0.15824  0.33927  1.0000
  H   H64       1.0  0.44489  0.13825  0.34419  1.0000
  H   H65       1.0  0.44878  0.31143  0.30219  1.0000
  H   H66       1.0  0.42668  0.27053  0.29855  1.0000
  C   C104      1.0  0.44047  0.20402  0.32087  1.0000
  N   N22       1.0  0.41716  0.19334  0.32102  1.0000
  C   C105      1.0  0.40550  0.20506  0.32026  1.0000
  N   N23       1.0  0.48934  0.15652  0.33184  1.0000
  N   N24       1.0  0.30936  0.16005  0.32395  1.0000
  C   C106      1.0  0.79865  0.26071  0.32181  1.0000
  C   C107      1.0  0.79693  0.18739  0.32091  1.0000
  C   C108      1.0  0.82004  0.16152  0.32516  1.0000
  C   C109      1.0  0.83226  0.18546  0.33925  1.0000
  C   C110      1.0  0.82086  0.19818  0.33706  1.0000
  C   C111      1.0  0.82283  0.27348  0.33247  1.0000
  C   C112      1.0  0.83468  0.29766  0.33547  1.0000
  C   C113      1.0  0.82263  0.30974  0.32910  1.0000
  C   C114      1.0  0.68815  0.15453  0.31127  1.0000
  C   C115      1.0  0.71230  0.16569  0.30946  1.0000
  H   H67       1.0  0.84958  0.19380  0.35053  1.0000
  H   H68       1.0  0.83033  0.21547  0.34821  1.0000
  H   H69       1.0  0.83212  0.26531  0.33915  1.0000
  H   H70       1.0  0.85210  0.30639  0.34408  1.0000
  H   H71       1.0  0.67894  0.13715  0.30249  1.0000
  H   H72       1.0  0.71985  0.15596  0.29841  1.0000
  C   C116      1.0  0.78634  0.23622  0.32079  1.0000
  N   N25       1.0  0.79704  0.22361  0.32087  1.0000
  C   C117      1.0  0.78532  0.20023  0.32012  1.0000
  N   N26       1.0  0.83382  0.33256  0.33175  1.0000
  N   N27       1.0  0.83037  0.14913  0.32385  1.0000
  C   C118      1.0  0.72952  0.53766  0.32195  1.0000
  C   C119      1.0  0.80284  0.60922  0.32103  1.0000
  C   C120      1.0  0.82871  0.65819  0.32532  1.0000
  C   C121      1.0  0.80476  0.64647  0.33938  1.0000
  C   C122      1.0  0.79204  0.62236  0.33719  1.0000
  C   C123      1.0  0.71673  0.54906  0.33248  1.0000
  C   C124      1.0  0.69255  0.53674  0.33550  1.0000
  C   C125      1.0  0.68047  0.51261  0.32925  1.0000
  C   C126      1.0  0.83570  0.53329  0.31117  1.0000
  C   C127      1.0  0.82454  0.54628  0.30948  1.0000
  H   H73       1.0  0.79642  0.65544  0.35067  1.0000
  H   H74       1.0  0.77475  0.61454  0.34835  1.0000
  H   H75       1.0  0.72490  0.56652  0.33911  1.0000
  H   H76       1.0  0.68382  0.54544  0.34402  1.0000
  H   H77       1.0  0.85309  0.54145  0.30237  1.0000
  H   H78       1.0  0.83428  0.56356  0.29848  1.0000
  C   C128      1.0  0.75400  0.54982  0.32092  1.0000
  N   N28       1.0  0.76662  0.57312  0.32101  1.0000
  C   C129      1.0  0.78999  0.58477  0.32024  1.0000
  N   N29       1.0  0.65765  0.50100  0.33182  1.0000
  N   N30       1.0  0.84110  0.68090  0.32396  1.0000
  C   C130      1.0  0.18460  0.09415  0.40631  1.0000
  C   C131      1.0  0.16082  0.08034  0.39101  1.0000
  H   H79       1.0  0.14981  0.07546  0.44425  1.0000
  C   C132      1.0  0.22366  0.11267  0.34571  1.0000
  C   C133      1.0  0.27158  0.13637  0.37007  1.0000
  C   C134      1.0  0.25680  0.13170  0.44388  1.0000
  C   C135      1.0  0.23273  0.11988  0.43278  1.0000
  C   C136      1.0  0.21758  0.11456  0.50554  1.0000
  C   C137      1.0  0.19370  0.10179  0.49241  1.0000
  H   H80       1.0  0.22381  0.11955  0.56877  1.0000
  H   H81       1.0  0.18306  0.09776  0.54638  1.0000
  H   H82       1.0  0.26359  0.13661  0.50654  1.0000
  C   C138      1.0  0.29505  0.14644  0.38240  1.0000
  H   H83       1.0  0.30083  0.14299  0.43805  1.0000
  C   C139      1.0  0.89616  0.09013  0.40636  1.0000
  C   C140      1.0  0.90995  0.08014  0.39111  1.0000
  H   H84       1.0  0.91480  0.07397  0.44436  1.0000
  C   C141      1.0  0.87769  0.11072  0.34571  1.0000
  C   C142      1.0  0.85405  0.13502  0.36999  1.0000
  C   C143      1.0  0.85870  0.12490  0.44383  1.0000
  C   C144      1.0  0.87048  0.11261  0.43276  1.0000
  C   C145      1.0  0.87578  0.10277  0.50555  1.0000
  C   C146      1.0  0.88851  0.09161  0.49245  1.0000
  H   H85       1.0  0.87081  0.10403  0.56877  1.0000
  H   H86       1.0  0.89255  0.08501  0.54644  1.0000
  H   H87       1.0  0.85379  0.12679  0.50648  1.0000
  C   C147      1.0  0.84400  0.14844  0.38226  1.0000
  H   H88       1.0  0.84747  0.15769  0.43787  1.0000
  C   C148      1.0  0.90013  0.80563  0.40632  1.0000
  C   C149      1.0  0.91014  0.82942  0.39105  1.0000
  H   H89       1.0  0.91627  0.84042  0.44431  1.0000
  C   C150      1.0  0.87953  0.76659  0.34571  1.0000
  C   C151      1.0  0.85521  0.71867  0.37005  1.0000
  C   C152      1.0  0.86535  0.73344  0.44386  1.0000
  C   C153      1.0  0.87764  0.75751  0.43276  1.0000
  C   C154      1.0  0.88749  0.77264  0.50554  1.0000
  C   C155      1.0  0.89864  0.79652  0.49243  1.0000
  H   H90       1.0  0.88623  0.76641  0.56877  1.0000
  H   H91       1.0  0.90526  0.80715  0.54640  1.0000
  H   H92       1.0  0.86345  0.72664  0.50652  1.0000
  C   C156      1.0  0.84179  0.69521  0.38235  1.0000
  H   H93       1.0  0.83254  0.68944  0.43795  1.0000
  C   C157      1.0  0.51999  0.15091  0.37215  1.0000
  C   C158      1.0  0.53207  0.14861  0.44570  1.0000
  N   N31       1.0  0.54901  0.14368  0.42963  1.0000
  C   C159      1.0  0.55510  0.14013  0.34752  1.0000
  C   C160      1.0  0.60718  0.13790  0.40001  1.0000
  N   N32       1.0  0.58744  0.13854  0.40738  1.0000
  H   H94       1.0  0.61645  0.13967  0.45648  1.0000
  C   C161      1.0  0.52850  0.15196  0.54077  1.0000
  H   H95       1.0  0.51374  0.15424  0.55138  1.0000
  H   H96       1.0  0.54376  0.16701  0.56662  1.0000
  H   H97       1.0  0.52563  0.13695  0.57905  1.0000
  C   C162      1.0  0.50689  0.16147  0.38114  1.0000
  H   H98       1.0  0.51276  0.17491  0.42205  1.0000
  C   C163      1.0  0.83947  0.36884  0.37208  1.0000
  C   C164      1.0  0.84174  0.38320  0.44561  1.0000
  N   N33       1.0  0.84667  0.40508  0.42956  1.0000
  C   C165      1.0  0.85025  0.41472  0.34747  1.0000
  C   C166      1.0  0.85236  0.46898  0.39992  1.0000
  N   N34       1.0  0.85177  0.44862  0.40731  1.0000
  H   H99       1.0  0.85057  0.47645  0.45638  1.0000
  C   C167      1.0  0.83833  0.37626  0.54065  1.0000
  H   H100      1.0  0.83604  0.35922  0.55122  1.0000
  H   H101      1.0  0.82325  0.37646  0.56634  1.0000
  H   H102      1.0  0.85331  0.38838  0.57907  1.0000
  C   C168      1.0  0.82884  0.34517  0.38084  1.0000
  H   H103      1.0  0.81541  0.33761  0.42179  1.0000
  C   C169      1.0  0.62137  0.47037  0.37205  1.0000
  C   C170      1.0  0.60700  0.45827  0.44560  1.0000
  N   N35       1.0  0.58513  0.44133  0.42951  1.0000
  C   C171      1.0  0.57549  0.43528  0.34741  1.0000
  C   C172      1.0  0.52124  0.38314  0.39975  1.0000
  N   N36       1.0  0.54160  0.40290  0.40718  1.0000
  H   H104      1.0  0.51377  0.37386  0.45619  1.0000
  C   C173      1.0  0.61393  0.46178  0.54065  1.0000
  H   H105      1.0  0.63097  0.47654  0.55129  1.0000
  H   H106      1.0  0.61375  0.44651  0.56628  1.0000
  H   H107      1.0  0.60179  0.46461  0.57910  1.0000
  C   C174      1.0  0.64503  0.48343  0.38096  1.0000
  H   H108      1.0  0.65258  0.47755  0.42195  1.0000
