data_image0
_chemical_formula_structural       C3HNO2COC3HNO2COC3HNO2COC24H15NHNHNHC24H15NHNHNHC3HNO2COC3HNO2COC3HNO2CO
_chemical_formula_sum              "C72 H42 N12 O18"
_cell_length_a       37.1411
_cell_length_b       37.1412
_cell_length_c       15.0312
_cell_angle_alpha    90
_cell_angle_beta     90
_cell_angle_gamma    120

_space_group_name_H-M_alt    "P 1"
_space_group_IT_number       1

loop_
  _space_group_symop_operation_xyz
  'x, y, z'

loop_
  _atom_site_type_symbol
  _atom_site_label
  _atom_site_symmetry_multiplicity
  _atom_site_fract_x
  _atom_site_fract_y
  _atom_site_fract_z
  _atom_site_occupancy
  C   C1        1.0  0.47169  0.51585  0.32271  1.0000
  C   C2        1.0  0.47414  0.49138  0.25317  1.0000
  C   C3        1.0  0.50088  0.47480  0.26310  1.0000
  H   H1        1.0  0.50317  0.45791  0.21177  1.0000
  N   N1        1.0  0.45138  0.48539  0.17351  1.0000
  O   O1        1.0  0.47512  0.50084  0.10765  1.0000
  O   O2        1.0  0.42692  0.44748  0.15858  1.0000
  C   C4        1.0  0.44476  0.53253  0.31790  1.0000
  O   O3        1.0  0.40466  0.50643  0.29472  1.0000
  C   C5        1.0  0.48159  0.95535  0.32178  1.0000
  C   C6        1.0  0.50591  0.98233  0.25217  1.0000
  C   C7        1.0  0.52251  0.02565  0.26239  1.0000
  H   H2        1.0  0.53930  0.04487  0.21104  1.0000
  N   N2        1.0  0.51172  0.96565  0.17221  1.0000
  O   O4        1.0  0.49611  0.97399  0.10672  1.0000
  O   O5        1.0  0.54958  0.97910  0.15680  1.0000
  C   C8        1.0  0.46491  0.91175  0.31670  1.0000
  O   O6        1.0  0.49097  0.89777  0.29305  1.0000
  C   C9        1.0  0.04206  0.52569  0.32228  1.0000
  C   C10       1.0  0.01515  0.52319  0.25269  1.0000
  C   C11       1.0  0.97183  0.49646  0.26262  1.0000
  H   H3        1.0  0.95266  0.49416  0.21127  1.0000
  N   N3        1.0  0.03192  0.54588  0.17297  1.0000
  O   O7        1.0  0.02365  0.52210  0.10720  1.0000
  O   O8        1.0  0.01849  0.57034  0.15786  1.0000
  C   C12       1.0  0.08567  0.55260  0.31748  1.0000
  O   O9        1.0  0.09968  0.59269  0.29411  1.0000
  C   C13       1.0  0.35032  0.70983  0.32365  1.0000
  C   C14       1.0  0.37511  0.69076  0.32353  1.0000
  C   C15       1.0  0.35741  0.64706  0.32385  1.0000
  C   C16       1.0  0.31355  0.62227  0.32375  1.0000
  C   C17       1.0  0.28755  0.63997  0.32386  1.0000
  C   C18       1.0  0.30661  0.68382  0.32357  1.0000
  C   C19       1.0  0.38308  0.62849  0.32623  1.0000
  C   C20       1.0  0.41929  0.64387  0.27296  1.0000
  C   C21       1.0  0.44465  0.62572  0.27613  1.0000
  C   C22       1.0  0.43391  0.59094  0.33094  1.0000
  C   C23       1.0  0.39823  0.57579  0.38521  1.0000
  C   C24       1.0  0.37328  0.59436  0.38304  1.0000
  C   C25       1.0  0.36889  0.75408  0.32578  1.0000
  C   C26       1.0  0.40315  0.77849  0.38223  1.0000
  C   C27       1.0  0.42175  0.82202  0.38410  1.0000
  C   C28       1.0  0.40647  0.84247  0.32993  1.0000
  C   C29       1.0  0.37156  0.81835  0.27550  1.0000
  C   C30       1.0  0.35340  0.77484  0.27259  1.0000
  C   C31       1.0  0.24331  0.61429  0.32623  1.0000
  C   C32       1.0  0.21896  0.62413  0.38288  1.0000
  C   C33       1.0  0.17544  0.59920  0.38498  1.0000
  C   C34       1.0  0.15492  0.56346  0.33083  1.0000
  C   C35       1.0  0.17898  0.55267  0.27622  1.0000
  C   C36       1.0  0.22249  0.57803  0.27308  1.0000
  H   H4        1.0  0.44611  0.83870  0.42639  1.0000
  H   H5        1.0  0.41456  0.76478  0.42388  1.0000
  H   H6        1.0  0.35990  0.83250  0.23585  1.0000
  H   H7        1.0  0.32904  0.75853  0.23006  1.0000
  H   H8        1.0  0.23272  0.64928  0.42446  1.0000
  H   H9        1.0  0.15879  0.60688  0.42740  1.0000
  H   H10       1.0  0.23876  0.56999  0.23039  1.0000
  H   H11       1.0  0.16479  0.52687  0.23656  1.0000
  H   H12       1.0  0.34818  0.58303  0.42474  1.0000
  H   H13       1.0  0.39058  0.55151  0.42775  1.0000
  H   H14       1.0  0.47044  0.63731  0.23643  1.0000
  H   H15       1.0  0.42731  0.66815  0.23019  1.0000
  H   H16       1.0  0.40679  0.70914  0.32409  1.0000
  H   H17       1.0  0.28823  0.69713  0.32419  1.0000
  H   H18       1.0  0.30024  0.59058  0.32450  1.0000
  N   N4        1.0  0.45866  0.57349  0.33374  1.0000
  H   H19       1.0  0.48860  0.59238  0.33774  1.0000
  N   N5        1.0  0.11272  0.53872  0.33361  1.0000
  H   H20       1.0  0.10169  0.50879  0.33774  1.0000
  N   N6        1.0  0.42394  0.88467  0.33237  1.0000
  H   H21       1.0  0.40507  0.89573  0.33712  1.0000
  C   C37       1.0  0.64655  0.28808  0.33893  1.0000
  C   C38       1.0  0.62175  0.30714  0.33917  1.0000
  C   C39       1.0  0.63945  0.35085  0.33897  1.0000
  C   C40       1.0  0.68331  0.37564  0.33908  1.0000
  C   C41       1.0  0.70931  0.35795  0.33886  1.0000
  C   C42       1.0  0.69025  0.31409  0.33904  1.0000
  C   C43       1.0  0.61377  0.36941  0.33666  1.0000
  C   C44       1.0  0.57754  0.35399  0.38990  1.0000
  C   C45       1.0  0.55218  0.37213  0.38679  1.0000
  C   C46       1.0  0.56294  0.40697  0.33215  1.0000
  C   C47       1.0  0.59864  0.42216  0.27789  1.0000
  C   C48       1.0  0.62357  0.40356  0.27992  1.0000
  C   C49       1.0  0.62798  0.24384  0.33654  1.0000
  C   C50       1.0  0.59379  0.21950  0.27988  1.0000
  C   C51       1.0  0.57521  0.17598  0.27773  1.0000
  C   C52       1.0  0.59045  0.15546  0.33180  1.0000
  C   C53       1.0  0.62532  0.17951  0.38637  1.0000
  C   C54       1.0  0.64344  0.22302  0.38961  1.0000
  C   C55       1.0  0.75355  0.38362  0.33644  1.0000
  C   C56       1.0  0.77788  0.37380  0.27967  1.0000
  C   C57       1.0  0.82140  0.39873  0.27750  1.0000
  C   C58       1.0  0.84193  0.43446  0.33167  1.0000
  C   C59       1.0  0.81789  0.44523  0.38642  1.0000
  C   C60       1.0  0.77439  0.41987  0.38962  1.0000
  H   H22       1.0  0.55087  0.15934  0.23534  1.0000
  H   H23       1.0  0.58238  0.23326  0.23836  1.0000
  H   H24       1.0  0.63693  0.16532  0.42601  1.0000
  H   H25       1.0  0.66775  0.23928  0.43229  1.0000
  H   H26       1.0  0.76411  0.34866  0.23807  1.0000
  H   H27       1.0  0.83803  0.39106  0.23501  1.0000
  H   H28       1.0  0.75813  0.42790  0.43236  1.0000
  H   H29       1.0  0.83210  0.47103  0.42607  1.0000
  H   H30       1.0  0.64869  0.41494  0.23828  1.0000
  H   H31       1.0  0.60631  0.44647  0.23545  1.0000
  H   H32       1.0  0.52643  0.36057  0.42659  1.0000
  H   H33       1.0  0.56954  0.32971  0.43265  1.0000
  H   H34       1.0  0.59006  0.28876  0.33854  1.0000
  H   H35       1.0  0.70863  0.30078  0.33832  1.0000
  H   H36       1.0  0.69661  0.40733  0.33841  1.0000
  N   N7        1.0  0.53822  0.42445  0.32953  1.0000
  H   H37       1.0  0.50828  0.40555  0.32534  1.0000
  N   N8        1.0  0.88413  0.45920  0.32888  1.0000
  H   H38       1.0  0.89519  0.48914  0.32477  1.0000
  N   N9        1.0  0.57301  0.11327  0.32893  1.0000
  H   H39       1.0  0.59192  0.10225  0.32457  1.0000
  C   C61       1.0  0.52521  0.48210  0.34046  1.0000
  C   C62       1.0  0.52276  0.50657  0.40999  1.0000
  C   C63       1.0  0.49601  0.52315  0.40006  1.0000
  H   H40       1.0  0.49373  0.54003  0.45139  1.0000
  N   N10       1.0  0.54550  0.51255  0.48965  1.0000
  O   O10       1.0  0.52177  0.49709  0.55550  1.0000
  O   O11       1.0  0.56997  0.55046  0.50461  1.0000
  C   C64       1.0  0.55213  0.46542  0.34526  1.0000
  O   O12       1.0  0.59223  0.49151  0.36847  1.0000
  C   C65       1.0  0.51540  0.04260  0.34010  1.0000
  C   C66       1.0  0.49107  0.01561  0.40969  1.0000
  C   C67       1.0  0.47447  0.97229  0.39947  1.0000
  H   H41       1.0  0.45767  0.95306  0.45081  1.0000
  N   N11       1.0  0.48525  0.03229  0.48965  1.0000
  O   O13       1.0  0.50085  0.02395  0.55516  1.0000
  O   O14       1.0  0.44738  0.01884  0.50503  1.0000
  C   C68       1.0  0.53209  0.08620  0.34519  1.0000
  O   O15       1.0  0.50603  0.10018  0.36881  1.0000
  C   C69       1.0  0.95479  0.47221  0.34007  1.0000
  C   C70       1.0  0.98170  0.47471  0.40967  1.0000
  C   C71       1.0  0.02503  0.50143  0.39973  1.0000
  H   H42       1.0  0.04419  0.50374  0.45108  1.0000
  N   N12       1.0  0.96493  0.45201  0.48938  1.0000
  O   O16       1.0  0.97321  0.47579  0.55516  1.0000
  O   O17       1.0  0.97836  0.42755  0.50448  1.0000
  C   C72       1.0  0.91118  0.44530  0.34491  1.0000
  O   O18       1.0  0.89717  0.40521  0.36817  1.0000
