data_image0
_chemical_formula_structural       C15H12C4HC6HOHOH3OHOHC10H4CNCHNHC2NC3HC4NC3HC15H12C4HC6HOHOH3OHOHC10H4CNCHNHC2NC3HC4NC3HC15H12C4HC6HOHOH3OHOHC10H4CNCHNHC2NC3HC4NC3HC15H12C4HC6HOHOH3OHOHC10H4CNCHNHC2NC3HC4NC3H
_chemical_formula_sum              "C196 H112 O16 N16"
_cell_length_a       32.5952
_cell_length_b       32.5956
_cell_length_c       15.0862
_cell_angle_alpha    90
_cell_angle_beta     90
_cell_angle_gamma    89.948

_space_group_name_H-M_alt    "P 1"
_space_group_IT_number       1

loop_
  _space_group_symop_operation_xyz
  'x, y, z'

loop_
  _atom_site_type_symbol
  _atom_site_label
  _atom_site_symmetry_multiplicity
  _atom_site_fract_x
  _atom_site_fract_y
  _atom_site_fract_z
  _atom_site_occupancy
  C   C1        1.0  0.99643  0.39884  0.29453  1.0000
  C   C2        1.0  0.03378  0.41650  0.26672  1.0000
  C   C3        1.0  0.03373  0.44822  0.20382  1.0000
  C   C4        1.0  0.99669  0.46294  0.16570  1.0000
  C   C5        1.0  0.45955  0.44887  0.20443  1.0000
  C   C6        1.0  0.45925  0.41723  0.26742  1.0000
  C   C7        1.0  0.99675  0.99796  0.09901  1.0000
  C   C8        1.0  0.99666  0.03335  0.16472  1.0000
  C   C9        1.0  0.45953  0.04770  0.20307  1.0000
  C   C10       1.0  0.45925  0.07953  0.26563  1.0000
  C   C11       1.0  0.99641  0.09782  0.29269  1.0000
  C   C12       1.0  0.03379  0.08004  0.26500  1.0000
  C   C13       1.0  0.03372  0.04802  0.20281  1.0000
  C   C14       1.0  0.03215  0.99775  0.03328  1.0000
  C   C15       1.0  0.46139  0.49767  0.03313  1.0000
  H   H1        1.0  0.45673  0.06241  0.01664  1.0000
  H   H2        1.0  0.45798  0.43279  0.01761  1.0000
  H   H3        1.0  0.03579  0.43289  0.01750  1.0000
  H   H4        1.0  0.03655  0.06250  0.01680  1.0000
  H   H5        1.0  0.06147  0.03733  0.18123  1.0000
  H   H6        1.0  0.06119  0.09398  0.27932  1.0000
  H   H7        1.0  0.43174  0.09304  0.28097  1.0000
  H   H8        1.0  0.43184  0.03681  0.18170  1.0000
  H   H9        1.0  0.43186  0.45971  0.18276  1.0000
  H   H10       1.0  0.06148  0.45873  0.18191  1.0000
  H   H11       1.0  0.06114  0.40240  0.28092  1.0000
  H   H12       1.0  0.43167  0.40388  0.28282  1.0000
  C   C16       1.0  0.49581  0.35579  0.30003  1.0000
  C   C17       1.0  0.49667  0.26993  0.29863  1.0000
  C   C18       1.0  0.49387  0.29136  0.21678  1.0000
  C   C19       1.0  0.49346  0.33433  0.21902  1.0000
  H   H13       1.0  0.49171  0.35043  0.16067  1.0000
  C   C20       1.0  0.99681  0.22670  0.29833  1.0000
  C   C21       1.0  0.99634  0.14085  0.29860  1.0000
  C   C22       1.0  0.99400  0.16251  0.21784  1.0000
  C   C23       1.0  0.99420  0.20549  0.21618  1.0000
  C   C24       1.0  0.99191  0.22700  0.13499  1.0000
  C   C25       1.0  0.49173  0.27008  0.13530  1.0000
  H   H14       1.0  0.99225  0.14656  0.15930  1.0000
  O   O1        1.0  0.98860  0.20711  0.05582  1.0000
  H   H15       1.0  0.01681  0.20260  0.03479  1.0000
  O   O2        1.0  0.48823  0.29018  0.05640  1.0000
  H   H16       1.0  0.51640  0.29514  0.03566  1.0000
  H   H17       1.0  0.15261  0.49103  0.03147  1.0000
  H   H18       1.0  0.34130  0.49068  0.03093  1.0000
  O   O3        1.0  0.28882  0.50650  0.30969  1.0000
  H   H19       1.0  0.29208  0.47863  0.28571  1.0000
  O   O4        1.0  0.20471  0.50665  0.30987  1.0000
  H   H20       1.0  0.19986  0.47869  0.28775  1.0000
  C   C26       1.0  0.44605  0.03459  0.66223  1.0000
  C   C27       1.0  0.41335  0.03434  0.60161  1.0000
  C   C28       1.0  0.39623  0.49685  0.57323  1.0000
  C   C29       1.0  0.41453  0.45978  0.60116  1.0000
  C   C30       1.0  0.44682  0.46037  0.66268  1.0000
  C   C31       1.0  0.04686  0.46050  0.66273  1.0000
  C   C32       1.0  0.07934  0.46003  0.60169  1.0000
  C   C33       1.0  0.09759  0.99714  0.57396  1.0000
  C   C34       1.0  0.08011  0.03457  0.60192  1.0000
  C   C35       1.0  0.04737  0.03470  0.66245  1.0000
  H   H21       1.0  0.39943  0.06162  0.58605  1.0000
  H   H22       1.0  0.40127  0.43215  0.58605  1.0000
  H   H23       1.0  0.09273  0.43244  0.58654  1.0000
  H   H24       1.0  0.09405  0.06187  0.58691  1.0000
  C   C36       1.0  0.49890  0.33322  0.37931  1.0000
  N   N1        1.0  0.49908  0.29156  0.37581  1.0000
  C   C37       1.0  0.99921  0.16320  0.37819  1.0000
  H   H25       1.0  0.50101  0.34767  0.43929  1.0000
  N   N2        1.0  0.99922  0.20486  0.37524  1.0000
  H   H26       1.0  0.00115  0.14858  0.43802  1.0000
  C   C38       1.0  0.14023  0.49644  0.55949  1.0000
  C   C39       1.0  0.16496  0.49315  0.63587  1.0000
  N   N3        1.0  0.20595  0.49297  0.62810  1.0000
  C   C40       1.0  0.22542  0.49584  0.54910  1.0000
  C   C41       1.0  0.20289  0.49938  0.46903  1.0000
  C   C42       1.0  0.15944  0.49980  0.47568  1.0000
  H   H27       1.0  0.14172  0.50246  0.41995  1.0000
  C   C43       1.0  0.26834  0.49576  0.54897  1.0000
  C   C44       1.0  0.32889  0.49282  0.63538  1.0000
  C   C45       1.0  0.35355  0.49612  0.55890  1.0000
  C   C46       1.0  0.33423  0.49953  0.47519  1.0000
  N   N4        1.0  0.28790  0.49278  0.62785  1.0000
  C   C47       1.0  0.29078  0.49923  0.46876  1.0000
  C   C48       1.0  0.26858  0.50230  0.38811  1.0000
  C   C49       1.0  0.22499  0.50238  0.38824  1.0000
  H   H28       1.0  0.35189  0.50219  0.41937  1.0000
  C   C50       1.0  0.99643  0.89884  0.29453  1.0000
  C   C51       1.0  0.03378  0.91649  0.26672  1.0000
  C   C52       1.0  0.03373  0.94822  0.20382  1.0000
  C   C53       1.0  0.99669  0.96294  0.16570  1.0000
  C   C54       1.0  0.45955  0.94887  0.20443  1.0000
  C   C55       1.0  0.45925  0.91723  0.26742  1.0000
  C   C56       1.0  0.99675  0.49796  0.09901  1.0000
  C   C57       1.0  0.99666  0.53335  0.16472  1.0000
  C   C58       1.0  0.45953  0.54771  0.20307  1.0000
  C   C59       1.0  0.45925  0.57953  0.26563  1.0000
  C   C60       1.0  0.99641  0.59782  0.29268  1.0000
  C   C61       1.0  0.03379  0.58004  0.26500  1.0000
  C   C62       1.0  0.03372  0.54802  0.20281  1.0000
  C   C63       1.0  0.03215  0.49775  0.03328  1.0000
  C   C64       1.0  0.46139  0.99767  0.03313  1.0000
  H   H29       1.0  0.45673  0.56241  0.01664  1.0000
  H   H30       1.0  0.45798  0.93279  0.01760  1.0000
  H   H31       1.0  0.03579  0.93289  0.01750  1.0000
  H   H32       1.0  0.03655  0.56250  0.01680  1.0000
  H   H33       1.0  0.06147  0.53733  0.18123  1.0000
  H   H34       1.0  0.06119  0.59398  0.27932  1.0000
  H   H35       1.0  0.43174  0.59304  0.28097  1.0000
  H   H36       1.0  0.43184  0.53682  0.18170  1.0000
  H   H37       1.0  0.43186  0.95971  0.18276  1.0000
  H   H38       1.0  0.06148  0.95873  0.18191  1.0000
  H   H39       1.0  0.06113  0.90240  0.28092  1.0000
  H   H40       1.0  0.43167  0.90388  0.28282  1.0000
  C   C65       1.0  0.49581  0.85579  0.30003  1.0000
  C   C66       1.0  0.49667  0.76993  0.29862  1.0000
  C   C67       1.0  0.49387  0.79136  0.21678  1.0000
  C   C68       1.0  0.49346  0.83433  0.21902  1.0000
  H   H41       1.0  0.49171  0.85043  0.16067  1.0000
  C   C69       1.0  0.99681  0.72670  0.29833  1.0000
  C   C70       1.0  0.99634  0.64085  0.29860  1.0000
  C   C71       1.0  0.99400  0.66251  0.21784  1.0000
  C   C72       1.0  0.99420  0.70549  0.21618  1.0000
  C   C73       1.0  0.99191  0.72700  0.13499  1.0000
  C   C74       1.0  0.49173  0.77008  0.13530  1.0000
  H   H42       1.0  0.99225  0.64656  0.15930  1.0000
  O   O5        1.0  0.98860  0.70711  0.05582  1.0000
  H   H43       1.0  0.01681  0.70260  0.03479  1.0000
  O   O6        1.0  0.48823  0.79018  0.05640  1.0000
  H   H44       1.0  0.51640  0.79514  0.03566  1.0000
  H   H45       1.0  0.15261  0.99103  0.03147  1.0000
  H   H46       1.0  0.34130  0.99068  0.03093  1.0000
  O   O7        1.0  0.28882  0.00650  0.30969  1.0000
  H   H47       1.0  0.29208  0.97863  0.28571  1.0000
  O   O8        1.0  0.20471  0.00665  0.30987  1.0000
  H   H48       1.0  0.19986  0.97869  0.28775  1.0000
  C   C75       1.0  0.44605  0.53459  0.66223  1.0000
  C   C76       1.0  0.41335  0.53434  0.60161  1.0000
  C   C77       1.0  0.39623  0.99685  0.57323  1.0000
  C   C78       1.0  0.41453  0.95978  0.60116  1.0000
  C   C79       1.0  0.44682  0.96037  0.66268  1.0000
  C   C80       1.0  0.04686  0.96051  0.66273  1.0000
  C   C81       1.0  0.07934  0.96003  0.60169  1.0000
  C   C82       1.0  0.09759  0.49714  0.57396  1.0000
  C   C83       1.0  0.08011  0.53457  0.60192  1.0000
  C   C84       1.0  0.04737  0.53470  0.66245  1.0000
  H   H49       1.0  0.39943  0.56162  0.58605  1.0000
  H   H50       1.0  0.40126  0.93215  0.58605  1.0000
  H   H51       1.0  0.09273  0.93243  0.58654  1.0000
  H   H52       1.0  0.09405  0.56187  0.58691  1.0000
  C   C85       1.0  0.49890  0.83322  0.37931  1.0000
  N   N5        1.0  0.49908  0.79156  0.37581  1.0000
  C   C86       1.0  0.99921  0.66320  0.37819  1.0000
  H   H53       1.0  0.50102  0.84767  0.43929  1.0000
  N   N6        1.0  0.99922  0.70486  0.37524  1.0000
  H   H54       1.0  0.00115  0.64858  0.43802  1.0000
  C   C87       1.0  0.14022  0.99644  0.55949  1.0000
  C   C88       1.0  0.16496  0.99315  0.63587  1.0000
  N   N7        1.0  0.20595  0.99297  0.62810  1.0000
  C   C89       1.0  0.22542  0.99584  0.54910  1.0000
  C   C90       1.0  0.20289  0.99938  0.46903  1.0000
  C   C91       1.0  0.15944  0.99980  0.47568  1.0000
  H   H55       1.0  0.14172  0.00246  0.41995  1.0000
  C   C92       1.0  0.26834  0.99576  0.54897  1.0000
  C   C93       1.0  0.32889  0.99282  0.63538  1.0000
  C   C94       1.0  0.35355  0.99613  0.55890  1.0000
  C   C95       1.0  0.33423  0.99953  0.47519  1.0000
  N   N8        1.0  0.28790  0.99278  0.62785  1.0000
  C   C96       1.0  0.29078  0.99923  0.46876  1.0000
  C   C97       1.0  0.26858  0.00230  0.38811  1.0000
  C   C98       1.0  0.22499  0.00238  0.38824  1.0000
  H   H56       1.0  0.35189  0.00219  0.41937  1.0000
  C   C99       1.0  0.49643  0.39884  0.29453  1.0000
  C   C100      1.0  0.53378  0.41650  0.26672  1.0000
  C   C101      1.0  0.53373  0.44822  0.20382  1.0000
  C   C102      1.0  0.49669  0.46294  0.16570  1.0000
  C   C103      1.0  0.95955  0.44887  0.20443  1.0000
  C   C104      1.0  0.95925  0.41723  0.26742  1.0000
  C   C105      1.0  0.49675  0.99796  0.09901  1.0000
  C   C106      1.0  0.49666  0.03335  0.16472  1.0000
  C   C107      1.0  0.95953  0.04770  0.20307  1.0000
  C   C108      1.0  0.95925  0.07953  0.26563  1.0000
  C   C109      1.0  0.49641  0.09782  0.29269  1.0000
  C   C110      1.0  0.53379  0.08004  0.26500  1.0000
  C   C111      1.0  0.53372  0.04802  0.20281  1.0000
  C   C112      1.0  0.53215  0.99775  0.03328  1.0000
  C   C113      1.0  0.96139  0.49767  0.03313  1.0000
  H   H57       1.0  0.95673  0.06241  0.01664  1.0000
  H   H58       1.0  0.95797  0.43279  0.01761  1.0000
  H   H59       1.0  0.53579  0.43289  0.01750  1.0000
  H   H60       1.0  0.53655  0.06250  0.01680  1.0000
  H   H61       1.0  0.56147  0.03733  0.18123  1.0000
  H   H62       1.0  0.56119  0.09398  0.27932  1.0000
  H   H63       1.0  0.93174  0.09304  0.28097  1.0000
  H   H64       1.0  0.93184  0.03681  0.18170  1.0000
  H   H65       1.0  0.93186  0.45971  0.18276  1.0000
  H   H66       1.0  0.56149  0.45873  0.18191  1.0000
  H   H67       1.0  0.56113  0.40240  0.28092  1.0000
  H   H68       1.0  0.93167  0.40388  0.28282  1.0000
  C   C114      1.0  0.99581  0.35579  0.30003  1.0000
  C   C115      1.0  0.99667  0.26993  0.29863  1.0000
  C   C116      1.0  0.99387  0.29136  0.21678  1.0000
  C   C117      1.0  0.99346  0.33433  0.21902  1.0000
  H   H69       1.0  0.99171  0.35043  0.16067  1.0000
  C   C118      1.0  0.49681  0.22670  0.29833  1.0000
  C   C119      1.0  0.49634  0.14085  0.29860  1.0000
  C   C120      1.0  0.49400  0.16251  0.21784  1.0000
  C   C121      1.0  0.49420  0.20549  0.21618  1.0000
  C   C122      1.0  0.49191  0.22700  0.13499  1.0000
  C   C123      1.0  0.99172  0.27008  0.13530  1.0000
  H   H70       1.0  0.49225  0.14656  0.15930  1.0000
  O   O9        1.0  0.48860  0.20711  0.05582  1.0000
  H   H71       1.0  0.51681  0.20260  0.03479  1.0000
  O   O10       1.0  0.98823  0.29018  0.05640  1.0000
  H   H72       1.0  0.01640  0.29514  0.03566  1.0000
  H   H73       1.0  0.65261  0.49103  0.03147  1.0000
  H   H74       1.0  0.84130  0.49068  0.03093  1.0000
  O   O11       1.0  0.78882  0.50650  0.30969  1.0000
  H   H75       1.0  0.79208  0.47863  0.28571  1.0000
  O   O12       1.0  0.70471  0.50665  0.30987  1.0000
  H   H76       1.0  0.69986  0.47869  0.28775  1.0000
  C   C124      1.0  0.94605  0.03459  0.66223  1.0000
  C   C125      1.0  0.91335  0.03434  0.60161  1.0000
  C   C126      1.0  0.89623  0.49685  0.57323  1.0000
  C   C127      1.0  0.91453  0.45978  0.60116  1.0000
  C   C128      1.0  0.94682  0.46037  0.66268  1.0000
  C   C129      1.0  0.54686  0.46050  0.66273  1.0000
  C   C130      1.0  0.57934  0.46003  0.60169  1.0000
  C   C131      1.0  0.59759  0.99714  0.57396  1.0000
  C   C132      1.0  0.58011  0.03457  0.60192  1.0000
  C   C133      1.0  0.54737  0.03470  0.66245  1.0000
  H   H77       1.0  0.89944  0.06162  0.58605  1.0000
  H   H78       1.0  0.90127  0.43215  0.58605  1.0000
  H   H79       1.0  0.59273  0.43244  0.58654  1.0000
  H   H80       1.0  0.59405  0.06187  0.58691  1.0000
  C   C134      1.0  0.99890  0.33322  0.37931  1.0000
  N   N9        1.0  0.99907  0.29156  0.37581  1.0000
  C   C135      1.0  0.49921  0.16320  0.37819  1.0000
  H   H81       1.0  0.00101  0.34767  0.43929  1.0000
  N   N10       1.0  0.49922  0.20486  0.37524  1.0000
  H   H82       1.0  0.50115  0.14858  0.43802  1.0000
  C   C136      1.0  0.64023  0.49644  0.55949  1.0000
  C   C137      1.0  0.66496  0.49315  0.63587  1.0000
  N   N11       1.0  0.70594  0.49297  0.62810  1.0000
  C   C138      1.0  0.72542  0.49584  0.54910  1.0000
  C   C139      1.0  0.70289  0.49938  0.46903  1.0000
  C   C140      1.0  0.65944  0.49980  0.47568  1.0000
  H   H83       1.0  0.64172  0.50246  0.41995  1.0000
  C   C141      1.0  0.76834  0.49576  0.54897  1.0000
  C   C142      1.0  0.82889  0.49282  0.63538  1.0000
  C   C143      1.0  0.85355  0.49612  0.55890  1.0000
  C   C144      1.0  0.83423  0.49953  0.47519  1.0000
  N   N12       1.0  0.78790  0.49278  0.62785  1.0000
  C   C145      1.0  0.79078  0.49923  0.46876  1.0000
  C   C146      1.0  0.76857  0.50230  0.38811  1.0000
  C   C147      1.0  0.72499  0.50238  0.38824  1.0000
  H   H84       1.0  0.85189  0.50219  0.41937  1.0000
  C   C148      1.0  0.49643  0.89884  0.29453  1.0000
  C   C149      1.0  0.53378  0.91649  0.26672  1.0000
  C   C150      1.0  0.53373  0.94822  0.20382  1.0000
  C   C151      1.0  0.49669  0.96294  0.16570  1.0000
  C   C152      1.0  0.95955  0.94887  0.20443  1.0000
  C   C153      1.0  0.95925  0.91723  0.26742  1.0000
  C   C154      1.0  0.49675  0.49796  0.09901  1.0000
  C   C155      1.0  0.49666  0.53335  0.16472  1.0000
  C   C156      1.0  0.95953  0.54771  0.20307  1.0000
  C   C157      1.0  0.95925  0.57953  0.26563  1.0000
  C   C158      1.0  0.49641  0.59782  0.29268  1.0000
  C   C159      1.0  0.53379  0.58004  0.26500  1.0000
  C   C160      1.0  0.53372  0.54802  0.20281  1.0000
  C   C161      1.0  0.53215  0.49775  0.03328  1.0000
  C   C162      1.0  0.96139  0.99767  0.03313  1.0000
  H   H85       1.0  0.95673  0.56241  0.01664  1.0000
  H   H86       1.0  0.95798  0.93279  0.01760  1.0000
  H   H87       1.0  0.53579  0.93289  0.01750  1.0000
  H   H88       1.0  0.53655  0.56250  0.01680  1.0000
  H   H89       1.0  0.56147  0.53733  0.18123  1.0000
  H   H90       1.0  0.56119  0.59398  0.27932  1.0000
  H   H91       1.0  0.93174  0.59304  0.28097  1.0000
  H   H92       1.0  0.93184  0.53682  0.18170  1.0000
  H   H93       1.0  0.93186  0.95971  0.18276  1.0000
  H   H94       1.0  0.56149  0.95873  0.18191  1.0000
  H   H95       1.0  0.56113  0.90240  0.28092  1.0000
  H   H96       1.0  0.93167  0.90388  0.28282  1.0000
  C   C163      1.0  0.99581  0.85579  0.30003  1.0000
  C   C164      1.0  0.99667  0.76993  0.29862  1.0000
  C   C165      1.0  0.99387  0.79136  0.21678  1.0000
  C   C166      1.0  0.99346  0.83433  0.21902  1.0000
  H   H97       1.0  0.99171  0.85043  0.16067  1.0000
  C   C167      1.0  0.49681  0.72670  0.29833  1.0000
  C   C168      1.0  0.49634  0.64085  0.29860  1.0000
  C   C169      1.0  0.49400  0.66251  0.21784  1.0000
  C   C170      1.0  0.49420  0.70549  0.21618  1.0000
  C   C171      1.0  0.49191  0.72700  0.13499  1.0000
  C   C172      1.0  0.99172  0.77008  0.13530  1.0000
  H   H98       1.0  0.49225  0.64656  0.15930  1.0000
  O   O13       1.0  0.48860  0.70711  0.05582  1.0000
  H   H99       1.0  0.51681  0.70260  0.03479  1.0000
  O   O14       1.0  0.98823  0.79018  0.05640  1.0000
  H   H100      1.0  0.01640  0.79514  0.03566  1.0000
  H   H101      1.0  0.65261  0.99103  0.03147  1.0000
  H   H102      1.0  0.84130  0.99068  0.03093  1.0000
  O   O15       1.0  0.78882  0.00650  0.30969  1.0000
  H   H103      1.0  0.79208  0.97863  0.28571  1.0000
  O   O16       1.0  0.70471  0.00665  0.30987  1.0000
  H   H104      1.0  0.69986  0.97869  0.28775  1.0000
  C   C173      1.0  0.94605  0.53459  0.66223  1.0000
  C   C174      1.0  0.91335  0.53434  0.60161  1.0000
  C   C175      1.0  0.89623  0.99685  0.57323  1.0000
  C   C176      1.0  0.91453  0.95978  0.60116  1.0000
  C   C177      1.0  0.94682  0.96037  0.66268  1.0000
  C   C178      1.0  0.54686  0.96051  0.66273  1.0000
  C   C179      1.0  0.57934  0.96003  0.60169  1.0000
  C   C180      1.0  0.59759  0.49714  0.57396  1.0000
  C   C181      1.0  0.58011  0.53457  0.60192  1.0000
  C   C182      1.0  0.54737  0.53470  0.66245  1.0000
  H   H105      1.0  0.89944  0.56162  0.58605  1.0000
  H   H106      1.0  0.90127  0.93215  0.58605  1.0000
  H   H107      1.0  0.59273  0.93243  0.58654  1.0000
  H   H108      1.0  0.59405  0.56187  0.58691  1.0000
  C   C183      1.0  0.99890  0.83322  0.37931  1.0000
  N   N13       1.0  0.99907  0.79156  0.37581  1.0000
  C   C184      1.0  0.49921  0.66320  0.37819  1.0000
  H   H109      1.0  0.00101  0.84767  0.43929  1.0000
  N   N14       1.0  0.49922  0.70486  0.37524  1.0000
  H   H110      1.0  0.50115  0.64858  0.43802  1.0000
  C   C185      1.0  0.64023  0.99644  0.55949  1.0000
  C   C186      1.0  0.66496  0.99315  0.63587  1.0000
  N   N15       1.0  0.70595  0.99297  0.62810  1.0000
  C   C187      1.0  0.72542  0.99584  0.54910  1.0000
  C   C188      1.0  0.70289  0.99938  0.46903  1.0000
  C   C189      1.0  0.65944  0.99980  0.47568  1.0000
  H   H111      1.0  0.64172  0.00246  0.41995  1.0000
  C   C190      1.0  0.76834  0.99576  0.54897  1.0000
  C   C191      1.0  0.82889  0.99282  0.63538  1.0000
  C   C192      1.0  0.85355  0.99613  0.55890  1.0000
  C   C193      1.0  0.83423  0.99953  0.47519  1.0000
  N   N16       1.0  0.78790  0.99278  0.62785  1.0000
  C   C194      1.0  0.79078  0.99923  0.46876  1.0000
  C   C195      1.0  0.76857  0.00230  0.38811  1.0000
  C   C196      1.0  0.72499  0.00238  0.38824  1.0000
  H   H112      1.0  0.85189  0.00219  0.41937  1.0000
