data_image0
_chemical_formula_structural       C3H2C2HC2O2C2NC3H3NHC2NC3H3NHC3HC4H2C2O2C5NH3NHC5NH3NHC3H2C2HC2O2C2NC3H3NHC2NC3H3NHC3HC4H2C2O2C5NH3NHC5NH3NHC3H2C2HC2O2C2NC3H3NHC2NC3H3NHC3HC4H2C2O2C5NH3NHC5NH3NHC3H2C2HC2O2C2NC3H3NHC2NC3H3NHC3HC4H2C2O2C5NH3NHC5NH3NH
_chemical_formula_sum              "C144 H88 O16 N32"
_cell_length_a       38.9144
_cell_length_b       38.9144
_cell_length_c       15.0459
_cell_angle_alpha    90
_cell_angle_beta     90
_cell_angle_gamma    90

_space_group_name_H-M_alt    "P 1"
_space_group_IT_number       1

loop_
  _space_group_symop_operation_xyz
  'x, y, z'

loop_
  _atom_site_type_symbol
  _atom_site_label
  _atom_site_symmetry_multiplicity
  _atom_site_fract_x
  _atom_site_fract_y
  _atom_site_fract_z
  _atom_site_occupancy
  C   C1        1.0  0.49259  0.45193  0.29950  1.0000
  C   C2        1.0  0.46713  0.42602  0.29639  1.0000
  C   C3        1.0  0.43443  0.43421  0.33049  1.0000
  H   H1        1.0  0.01545  0.44622  0.26994  1.0000
  H   H2        1.0  0.41587  0.41558  0.33062  1.0000
  C   C4        1.0  0.02921  0.07418  0.34032  1.0000
  C   C5        1.0  0.00406  0.04797  0.33659  1.0000
  H   H3        1.0  0.47908  0.05559  0.33977  1.0000
  C   C6        1.0  0.02177  0.10960  0.35378  1.0000
  C   C7        1.0  0.47303  0.39243  0.26280  1.0000
  O   O1        1.0  0.04888  0.12995  0.37603  1.0000
  O   O2        1.0  0.44471  0.37450  0.23726  1.0000
  C   C8        1.0  0.98721  0.16043  0.33475  1.0000
  C   C9        1.0  0.99221  0.23271  0.31303  1.0000
  N   N1        1.0  0.97563  0.21215  0.25348  1.0000
  C   C10       1.0  0.97135  0.17771  0.26300  1.0000
  C   C11       1.0  0.98520  0.28408  0.21670  1.0000
  C   C12       1.0  0.98897  0.31978  0.20649  1.0000
  H   H4        1.0  0.97188  0.27064  0.16951  1.0000
  H   H5        1.0  0.97864  0.33114  0.15134  1.0000
  H   H6        1.0  0.96095  0.16430  0.21119  1.0000
  N   N2        1.0  0.99150  0.12551  0.33223  1.0000
  H   H7        1.0  0.97617  0.11258  0.29341  1.0000
  C   C13       1.0  0.34007  0.00504  0.38806  1.0000
  C   C14       1.0  0.26793  0.99763  0.36605  1.0000
  N   N3        1.0  0.28784  0.01579  0.30825  1.0000
  C   C15       1.0  0.32205  0.02119  0.31797  1.0000
  C   C16       1.0  0.21711  0.00445  0.26857  1.0000
  C   C17       1.0  0.18139  0.00174  0.25805  1.0000
  H   H8        1.0  0.23105  0.01654  0.22016  1.0000
  H   H9        1.0  0.17057  0.01170  0.20171  1.0000
  H   H10       1.0  0.33488  0.03312  0.26737  1.0000
  N   N4        1.0  0.37514  0.00284  0.38388  1.0000
  H   H11       1.0  0.38675  0.01947  0.34569  1.0000
  C   C18       1.0  0.48609  0.48604  0.33023  1.0000
  C   C19       1.0  0.42617  0.46692  0.36442  1.0000
  C   C20       1.0  0.45198  0.49248  0.36098  1.0000
  H   H12       1.0  0.44625  0.01529  0.39072  1.0000
  C   C21       1.0  0.01222  0.01225  0.33023  1.0000
  C   C22       1.0  0.04796  0.00419  0.32393  1.0000
  C   C23       1.0  0.07411  0.02941  0.32052  1.0000
  C   C24       1.0  0.06375  0.06391  0.33053  1.0000
  H   H13       1.0  0.05564  0.47924  0.32064  1.0000
  H   H14       1.0  0.08229  0.08250  0.33069  1.0000
  C   C25       1.0  0.10956  0.02210  0.30734  1.0000
  C   C26       1.0  0.39259  0.47277  0.39816  1.0000
  O   O3        1.0  0.37476  0.44442  0.42391  1.0000
  O   O4        1.0  0.12986  0.04926  0.28512  1.0000
  C   C27       1.0  0.00120  0.18139  0.40269  1.0000
  C   C28       1.0  0.00399  0.21711  0.39221  1.0000
  C   C29       1.0  0.99764  0.26791  0.29444  1.0000
  C   C30       1.0  0.00529  0.34003  0.27240  1.0000
  C   C31       1.0  0.02113  0.32199  0.34292  1.0000
  N   N5        1.0  0.01569  0.28779  0.35255  1.0000
  H   H15       1.0  0.03314  0.33480  0.39344  1.0000
  H   H16       1.0  0.01110  0.17055  0.45907  1.0000
  H   H17       1.0  0.01603  0.23103  0.44076  1.0000
  N   N6        1.0  0.00325  0.37513  0.27621  1.0000
  H   H18       1.0  0.01988  0.38670  0.31442  1.0000
  C   C32       1.0  0.31980  0.98857  0.45368  1.0000
  C   C33       1.0  0.28409  0.98491  0.44347  1.0000
  C   C34       1.0  0.23270  0.99237  0.34745  1.0000
  C   C35       1.0  0.16041  0.98753  0.32562  1.0000
  C   C36       1.0  0.17767  0.97157  0.39722  1.0000
  N   N7        1.0  0.21213  0.97565  0.40671  1.0000
  H   H19       1.0  0.16426  0.96080  0.44854  1.0000
  H   H20       1.0  0.33112  0.97812  0.50871  1.0000
  H   H21       1.0  0.27060  0.97160  0.49060  1.0000
  N   N8        1.0  0.12548  0.99176  0.32813  1.0000
  H   H22       1.0  0.11256  0.97630  0.36664  1.0000
  C   C37       1.0  0.49259  0.95193  0.29950  1.0000
  C   C38       1.0  0.46713  0.92602  0.29639  1.0000
  C   C39       1.0  0.43443  0.93421  0.33049  1.0000
  H   H23       1.0  0.01545  0.94622  0.26994  1.0000
  H   H24       1.0  0.41587  0.91558  0.33062  1.0000
  C   C40       1.0  0.02921  0.57418  0.34032  1.0000
  C   C41       1.0  0.00406  0.54797  0.33659  1.0000
  H   H25       1.0  0.47908  0.55559  0.33977  1.0000
  C   C42       1.0  0.02177  0.60960  0.35378  1.0000
  C   C43       1.0  0.47303  0.89243  0.26280  1.0000
  O   O5        1.0  0.04888  0.62995  0.37603  1.0000
  O   O6        1.0  0.44471  0.87450  0.23726  1.0000
  C   C44       1.0  0.98721  0.66043  0.33475  1.0000
  C   C45       1.0  0.99221  0.73271  0.31303  1.0000
  N   N9        1.0  0.97563  0.71214  0.25348  1.0000
  C   C46       1.0  0.97135  0.67771  0.26300  1.0000
  C   C47       1.0  0.98520  0.78408  0.21670  1.0000
  C   C48       1.0  0.98897  0.81978  0.20649  1.0000
  H   H26       1.0  0.97188  0.77064  0.16951  1.0000
  H   H27       1.0  0.97864  0.83114  0.15134  1.0000
  H   H28       1.0  0.96095  0.66430  0.21119  1.0000
  N   N10       1.0  0.99150  0.62551  0.33223  1.0000
  H   H29       1.0  0.97617  0.61257  0.29341  1.0000
  C   C49       1.0  0.34007  0.50504  0.38806  1.0000
  C   C50       1.0  0.26793  0.49763  0.36605  1.0000
  N   N11       1.0  0.28784  0.51579  0.30825  1.0000
  C   C51       1.0  0.32205  0.52119  0.31797  1.0000
  C   C52       1.0  0.21711  0.50445  0.26857  1.0000
  C   C53       1.0  0.18139  0.50174  0.25805  1.0000
  H   H30       1.0  0.23105  0.51654  0.22016  1.0000
  H   H31       1.0  0.17057  0.51170  0.20171  1.0000
  H   H32       1.0  0.33488  0.53312  0.26737  1.0000
  N   N12       1.0  0.37514  0.50284  0.38388  1.0000
  H   H33       1.0  0.38675  0.51947  0.34569  1.0000
  C   C54       1.0  0.48609  0.98604  0.33023  1.0000
  C   C55       1.0  0.42617  0.96692  0.36442  1.0000
  C   C56       1.0  0.45198  0.99248  0.36098  1.0000
  H   H34       1.0  0.44625  0.51529  0.39072  1.0000
  C   C57       1.0  0.01222  0.51225  0.33023  1.0000
  C   C58       1.0  0.04796  0.50419  0.32393  1.0000
  C   C59       1.0  0.07411  0.52941  0.32052  1.0000
  C   C60       1.0  0.06375  0.56391  0.33053  1.0000
  H   H35       1.0  0.05564  0.97924  0.32064  1.0000
  H   H36       1.0  0.08229  0.58250  0.33069  1.0000
  C   C61       1.0  0.10956  0.52211  0.30734  1.0000
  C   C62       1.0  0.39259  0.97277  0.39816  1.0000
  O   O7        1.0  0.37476  0.94442  0.42391  1.0000
  O   O8        1.0  0.12986  0.54926  0.28512  1.0000
  C   C63       1.0  0.00120  0.68139  0.40269  1.0000
  C   C64       1.0  0.00399  0.71711  0.39221  1.0000
  C   C65       1.0  0.99764  0.76791  0.29444  1.0000
  C   C66       1.0  0.00529  0.84003  0.27240  1.0000
  C   C67       1.0  0.02113  0.82199  0.34292  1.0000
  N   N13       1.0  0.01569  0.78779  0.35255  1.0000
  H   H37       1.0  0.03314  0.83481  0.39344  1.0000
  H   H38       1.0  0.01110  0.67055  0.45907  1.0000
  H   H39       1.0  0.01603  0.73103  0.44076  1.0000
  N   N14       1.0  0.00325  0.87513  0.27621  1.0000
  H   H40       1.0  0.01988  0.88670  0.31442  1.0000
  C   C68       1.0  0.31980  0.48857  0.45368  1.0000
  C   C69       1.0  0.28409  0.48491  0.44347  1.0000
  C   C70       1.0  0.23270  0.49237  0.34745  1.0000
  C   C71       1.0  0.16041  0.48753  0.32562  1.0000
  C   C72       1.0  0.17767  0.47157  0.39722  1.0000
  N   N15       1.0  0.21213  0.47565  0.40671  1.0000
  H   H41       1.0  0.16426  0.46080  0.44854  1.0000
  H   H42       1.0  0.33112  0.47812  0.50871  1.0000
  H   H43       1.0  0.27060  0.47160  0.49060  1.0000
  N   N16       1.0  0.12548  0.49176  0.32813  1.0000
  H   H44       1.0  0.11256  0.47630  0.36664  1.0000
  C   C73       1.0  0.99260  0.45193  0.29950  1.0000
  C   C74       1.0  0.96713  0.42602  0.29639  1.0000
  C   C75       1.0  0.93443  0.43421  0.33049  1.0000
  H   H45       1.0  0.51545  0.44622  0.26994  1.0000
  H   H46       1.0  0.91587  0.41558  0.33062  1.0000
  C   C76       1.0  0.52921  0.07418  0.34032  1.0000
  C   C77       1.0  0.50406  0.04797  0.33659  1.0000
  H   H47       1.0  0.97908  0.05559  0.33977  1.0000
  C   C78       1.0  0.52177  0.10960  0.35378  1.0000
  C   C79       1.0  0.97303  0.39243  0.26280  1.0000
  O   O9        1.0  0.54888  0.12995  0.37603  1.0000
  O   O10       1.0  0.94471  0.37450  0.23726  1.0000
  C   C80       1.0  0.48722  0.16043  0.33475  1.0000
  C   C81       1.0  0.49221  0.23271  0.31303  1.0000
  N   N17       1.0  0.47563  0.21215  0.25348  1.0000
  C   C82       1.0  0.47136  0.17771  0.26300  1.0000
  C   C83       1.0  0.48520  0.28408  0.21670  1.0000
  C   C84       1.0  0.48897  0.31978  0.20649  1.0000
  H   H48       1.0  0.47188  0.27064  0.16951  1.0000
  H   H49       1.0  0.47864  0.33114  0.15134  1.0000
  H   H50       1.0  0.46095  0.16430  0.21119  1.0000
  N   N18       1.0  0.49150  0.12551  0.33223  1.0000
  H   H51       1.0  0.47617  0.11258  0.29341  1.0000
  C   C85       1.0  0.84007  0.00504  0.38806  1.0000
  C   C86       1.0  0.76793  0.99763  0.36605  1.0000
  N   N19       1.0  0.78784  0.01579  0.30825  1.0000
  C   C87       1.0  0.82205  0.02119  0.31797  1.0000
  C   C88       1.0  0.71711  0.00445  0.26857  1.0000
  C   C89       1.0  0.68139  0.00174  0.25805  1.0000
  H   H52       1.0  0.73105  0.01654  0.22016  1.0000
  H   H53       1.0  0.67057  0.01170  0.20171  1.0000
  H   H54       1.0  0.83488  0.03312  0.26737  1.0000
  N   N20       1.0  0.87514  0.00284  0.38388  1.0000
  H   H55       1.0  0.88675  0.01947  0.34569  1.0000
  C   C90       1.0  0.98609  0.48604  0.33023  1.0000
  C   C91       1.0  0.92617  0.46692  0.36442  1.0000
  C   C92       1.0  0.95198  0.49248  0.36098  1.0000
  H   H56       1.0  0.94625  0.01529  0.39072  1.0000
  C   C93       1.0  0.51222  0.01225  0.33023  1.0000
  C   C94       1.0  0.54796  0.00419  0.32393  1.0000
  C   C95       1.0  0.57411  0.02941  0.32052  1.0000
  C   C96       1.0  0.56375  0.06391  0.33053  1.0000
  H   H57       1.0  0.55564  0.47924  0.32064  1.0000
  H   H58       1.0  0.58229  0.08250  0.33069  1.0000
  C   C97       1.0  0.60957  0.02210  0.30734  1.0000
  C   C98       1.0  0.89259  0.47277  0.39816  1.0000
  O   O11       1.0  0.87476  0.44442  0.42391  1.0000
  O   O12       1.0  0.62986  0.04926  0.28512  1.0000
  C   C99       1.0  0.50120  0.18139  0.40269  1.0000
  C   C100      1.0  0.50399  0.21711  0.39221  1.0000
  C   C101      1.0  0.49764  0.26791  0.29444  1.0000
  C   C102      1.0  0.50529  0.34003  0.27240  1.0000
  C   C103      1.0  0.52113  0.32199  0.34292  1.0000
  N   N21       1.0  0.51569  0.28779  0.35255  1.0000
  H   H59       1.0  0.53314  0.33480  0.39344  1.0000
  H   H60       1.0  0.51109  0.17055  0.45907  1.0000
  H   H61       1.0  0.51603  0.23103  0.44076  1.0000
  N   N22       1.0  0.50326  0.37513  0.27621  1.0000
  H   H62       1.0  0.51989  0.38670  0.31442  1.0000
  C   C104      1.0  0.81980  0.98857  0.45368  1.0000
  C   C105      1.0  0.78409  0.98491  0.44347  1.0000
  C   C106      1.0  0.73270  0.99237  0.34745  1.0000
  C   C107      1.0  0.66041  0.98753  0.32562  1.0000
  C   C108      1.0  0.67767  0.97157  0.39722  1.0000
  N   N23       1.0  0.71213  0.97565  0.40671  1.0000
  H   H63       1.0  0.66426  0.96080  0.44854  1.0000
  H   H64       1.0  0.83112  0.97812  0.50871  1.0000
  H   H65       1.0  0.77060  0.97160  0.49060  1.0000
  N   N24       1.0  0.62548  0.99176  0.32813  1.0000
  H   H66       1.0  0.61256  0.97630  0.36664  1.0000
  C   C109      1.0  0.99260  0.95193  0.29950  1.0000
  C   C110      1.0  0.96713  0.92602  0.29639  1.0000
  C   C111      1.0  0.93443  0.93421  0.33049  1.0000
  H   H67       1.0  0.51545  0.94622  0.26994  1.0000
  H   H68       1.0  0.91587  0.91558  0.33062  1.0000
  C   C112      1.0  0.52921  0.57418  0.34032  1.0000
  C   C113      1.0  0.50406  0.54797  0.33659  1.0000
  H   H69       1.0  0.97908  0.55559  0.33977  1.0000
  C   C114      1.0  0.52177  0.60960  0.35378  1.0000
  C   C115      1.0  0.97303  0.89243  0.26280  1.0000
  O   O13       1.0  0.54888  0.62995  0.37603  1.0000
  O   O14       1.0  0.94471  0.87450  0.23726  1.0000
  C   C116      1.0  0.48722  0.66043  0.33475  1.0000
  C   C117      1.0  0.49221  0.73271  0.31303  1.0000
  N   N25       1.0  0.47563  0.71214  0.25348  1.0000
  C   C118      1.0  0.47136  0.67771  0.26300  1.0000
  C   C119      1.0  0.48520  0.78408  0.21670  1.0000
  C   C120      1.0  0.48897  0.81978  0.20649  1.0000
  H   H70       1.0  0.47188  0.77064  0.16951  1.0000
  H   H71       1.0  0.47864  0.83114  0.15134  1.0000
  H   H72       1.0  0.46095  0.66430  0.21119  1.0000
  N   N26       1.0  0.49150  0.62551  0.33223  1.0000
  H   H73       1.0  0.47617  0.61257  0.29341  1.0000
  C   C121      1.0  0.84007  0.50504  0.38806  1.0000
  C   C122      1.0  0.76793  0.49763  0.36605  1.0000
  N   N27       1.0  0.78784  0.51579  0.30825  1.0000
  C   C123      1.0  0.82205  0.52119  0.31797  1.0000
  C   C124      1.0  0.71711  0.50445  0.26857  1.0000
  C   C125      1.0  0.68139  0.50174  0.25805  1.0000
  H   H74       1.0  0.73105  0.51654  0.22016  1.0000
  H   H75       1.0  0.67057  0.51170  0.20171  1.0000
  H   H76       1.0  0.83488  0.53312  0.26737  1.0000
  N   N28       1.0  0.87514  0.50284  0.38388  1.0000
  H   H77       1.0  0.88675  0.51947  0.34569  1.0000
  C   C126      1.0  0.98609  0.98604  0.33023  1.0000
  C   C127      1.0  0.92617  0.96692  0.36442  1.0000
  C   C128      1.0  0.95198  0.99248  0.36098  1.0000
  H   H78       1.0  0.94625  0.51529  0.39072  1.0000
  C   C129      1.0  0.51222  0.51225  0.33023  1.0000
  C   C130      1.0  0.54796  0.50419  0.32393  1.0000
  C   C131      1.0  0.57411  0.52941  0.32052  1.0000
  C   C132      1.0  0.56375  0.56391  0.33053  1.0000
  H   H79       1.0  0.55564  0.97924  0.32064  1.0000
  H   H80       1.0  0.58229  0.58250  0.33069  1.0000
  C   C133      1.0  0.60957  0.52211  0.30734  1.0000
  C   C134      1.0  0.89259  0.97277  0.39816  1.0000
  O   O15       1.0  0.87476  0.94442  0.42391  1.0000
  O   O16       1.0  0.62986  0.54926  0.28512  1.0000
  C   C135      1.0  0.50120  0.68139  0.40269  1.0000
  C   C136      1.0  0.50399  0.71711  0.39221  1.0000
  C   C137      1.0  0.49764  0.76791  0.29444  1.0000
  C   C138      1.0  0.50529  0.84003  0.27240  1.0000
  C   C139      1.0  0.52113  0.82199  0.34292  1.0000
  N   N29       1.0  0.51569  0.78779  0.35255  1.0000
  H   H81       1.0  0.53314  0.83481  0.39344  1.0000
  H   H82       1.0  0.51109  0.67055  0.45907  1.0000
  H   H83       1.0  0.51603  0.73103  0.44076  1.0000
  N   N30       1.0  0.50326  0.87513  0.27621  1.0000
  H   H84       1.0  0.51989  0.88670  0.31442  1.0000
  C   C140      1.0  0.81980  0.48857  0.45368  1.0000
  C   C141      1.0  0.78409  0.48491  0.44347  1.0000
  C   C142      1.0  0.73270  0.49237  0.34745  1.0000
  C   C143      1.0  0.66041  0.48753  0.32562  1.0000
  C   C144      1.0  0.67767  0.47157  0.39722  1.0000
  N   N31       1.0  0.71213  0.47565  0.40671  1.0000
  H   H85       1.0  0.66426  0.46080  0.44854  1.0000
  H   H86       1.0  0.83112  0.47812  0.50871  1.0000
  H   H87       1.0  0.77060  0.47160  0.49060  1.0000
  N   N32       1.0  0.62548  0.49176  0.32813  1.0000
  H   H88       1.0  0.61256  0.47630  0.36664  1.0000
