data_image0
_chemical_formula_structural       NC2H3CHC6H3C2H2CNH2NC3H2C3H3C3H3NC3H3N2C2H3NC3H3C3H3NC3H3NC3H3NC7H3C6H3C6H3C6H3C6H3NC2H3NC3H3NC4H2C3H3N2C3H3NC3H3NC3H3N
_chemical_formula_sum              "N18 C90 H72"
_cell_length_a       30.3367
_cell_length_b       30.3368
_cell_length_c       14.7289
_cell_angle_alpha    90
_cell_angle_beta     90
_cell_angle_gamma    120

_space_group_name_H-M_alt    "P 1"
_space_group_IT_number       1

loop_
  _space_group_symop_operation_xyz
  'x, y, z'

loop_
  _atom_site_type_symbol
  _atom_site_label
  _atom_site_symmetry_multiplicity
  _atom_site_fract_x
  _atom_site_fract_y
  _atom_site_fract_z
  _atom_site_occupancy
  N   N1        1.0  0.04161  0.52280  0.28166  1.0000
  C   C1        1.0  0.05872  0.53177  0.53577  1.0000
  C   C2        1.0  0.03775  0.52119  0.44262  1.0000
  H   H1        1.0  0.04560  0.55457  0.57160  1.0000
  H   H2        1.0  0.10022  0.55235  0.53691  1.0000
  H   H3        1.0  0.04529  0.49592  0.57206  1.0000
  C   C3        1.0  0.06727  0.53568  0.36191  1.0000
  H   H4        1.0  0.20841  0.54602  0.16602  1.0000
  C   C4        1.0  0.20216  0.56215  0.34575  1.0000
  C   C5        1.0  0.22826  0.61587  0.34254  1.0000
  C   C6        1.0  0.20252  0.64370  0.34986  1.0000
  C   C7        1.0  0.14890  0.61661  0.35852  1.0000
  C   C8        1.0  0.12139  0.56260  0.35893  1.0000
  C   C9        1.0  0.14853  0.53579  0.35417  1.0000
  H   H5        1.0  0.12973  0.63639  0.36247  1.0000
  H   H6        1.0  0.12908  0.49678  0.35489  1.0000
  H   H7        1.0  0.19929  0.69667  0.53102  1.0000
  C   C10       1.0  0.24599  0.54955  0.16859  1.0000
  C   C11       1.0  0.25981  0.54201  0.26130  1.0000
  H   H8        1.0  0.27401  0.58730  0.14398  1.0000
  H   H9        1.0  0.24570  0.52097  0.12325  1.0000
  C   C12       1.0  0.23141  0.53785  0.34072  1.0000
  N   N2        1.0  0.25764  0.71793  0.27023  1.0000
  H   H10       1.0  0.26728  0.63532  0.33746  1.0000
  H   H11       1.0  0.29061  0.53570  0.57411  1.0000
  N   N3        1.0  0.25374  0.53718  0.42061  1.0000
  C   C13       1.0  0.23229  0.69731  0.34899  1.0000
  C   C14       1.0  0.25607  0.72481  0.42943  1.0000
  C   C15       1.0  0.23820  0.70451  0.52182  1.0000
  H   H12       1.0  0.26208  0.73172  0.57380  1.0000
  H   H13       1.0  0.23924  0.66937  0.53176  1.0000
  C   C16       1.0  0.96042  0.48258  0.35409  1.0000
  C   C17       1.0  0.98992  0.49714  0.27343  1.0000
  C   C18       1.0  0.96732  0.48579  0.18148  1.0000
  H   H14       1.0  0.94362  0.44473  0.17258  1.0000
  H   H15       1.0  0.99676  0.50028  0.12906  1.0000
  H   H16       1.0  0.94396  0.50349  0.17215  1.0000
  C   C19       1.0  0.54042  0.48245  0.35370  1.0000
  C   C20       1.0  0.52591  0.49742  0.27301  1.0000
  C   C21       1.0  0.53732  0.48620  0.18108  1.0000
  H   H17       1.0  0.57838  0.50356  0.17227  1.0000
  H   H18       1.0  0.52285  0.50115  0.12864  1.0000
  H   H19       1.0  0.51963  0.44514  0.17173  1.0000
  N   N4        1.0  0.50024  0.52345  0.28119  1.0000
  C   C22       1.0  0.54067  0.06252  0.35345  1.0000
  C   C23       1.0  0.52576  0.03303  0.27279  1.0000
  C   C24       1.0  0.53704  0.05565  0.18085  1.0000
  H   H20       1.0  0.51970  0.07936  0.17194  1.0000
  H   H21       1.0  0.52212  0.02622  0.12842  1.0000
  H   H22       1.0  0.57811  0.07900  0.17158  1.0000
  N   N5        1.0  0.49969  0.98134  0.28101  1.0000
  N   N6        1.0  0.30548  0.54434  0.27086  1.0000
  C   C25       1.0  0.47417  0.70088  0.16867  1.0000
  C   C26       1.0  0.48138  0.72233  0.26125  1.0000
  H   H23       1.0  0.43649  0.69110  0.14355  1.0000
  H   H24       1.0  0.47772  0.66684  0.16656  1.0000
  H   H25       1.0  0.50290  0.72913  0.12348  1.0000
  N   N7        1.0  0.47892  0.76563  0.27037  1.0000
  C   C27       1.0  0.48524  0.69821  0.34102  1.0000
  C   C28       1.0  0.32261  0.77808  0.16909  1.0000
  C   C29       1.0  0.30098  0.76367  0.26155  1.0000
  H   H26       1.0  0.33255  0.75030  0.14401  1.0000
  H   H27       1.0  0.35655  0.81573  0.16715  1.0000
  H   H28       1.0  0.29437  0.77849  0.12373  1.0000
  C   C30       1.0  0.32474  0.79153  0.34173  1.0000
  C   C31       1.0  0.78295  0.47058  0.17146  1.0000
  C   C32       1.0  0.76848  0.47736  0.26414  1.0000
  H   H29       1.0  0.75503  0.43307  0.14569  1.0000
  H   H30       1.0  0.82048  0.47399  0.16943  1.0000
  H   H31       1.0  0.78367  0.49960  0.12674  1.0000
  N   N8        1.0  0.72275  0.47502  0.27316  1.0000
  C   C33       1.0  0.79614  0.48057  0.34402  1.0000
  C   C34       1.0  0.55268  0.31682  0.17170  1.0000
  C   C35       1.0  0.54570  0.29566  0.26449  1.0000
  H   H32       1.0  0.59022  0.32633  0.14623  1.0000
  H   H33       1.0  0.54932  0.35096  0.16937  1.0000
  H   H34       1.0  0.52372  0.28849  0.12693  1.0000
  N   N9        1.0  0.54801  0.25228  0.27395  1.0000
  C   C36       1.0  0.54248  0.32022  0.34419  1.0000
  C   C37       1.0  0.70582  0.23997  0.17182  1.0000
  C   C38       1.0  0.72715  0.25447  0.26446  1.0000
  H   H35       1.0  0.69618  0.26787  0.14613  1.0000
  H   H36       1.0  0.67173  0.20242  0.16985  1.0000
  H   H37       1.0  0.73411  0.23929  0.12700  1.0000
  N   N10       1.0  0.77052  0.30022  0.27339  1.0000
  C   C39       1.0  0.70285  0.22697  0.34456  1.0000
  C   C40       1.0  0.46084  0.64463  0.34639  1.0000
  C   C41       1.0  0.40711  0.61706  0.34387  1.0000
  C   C42       1.0  0.37929  0.56346  0.35063  1.0000
  C   C43       1.0  0.40639  0.53691  0.35854  1.0000
  C   C44       1.0  0.46040  0.56339  0.35850  1.0000
  C   C45       1.0  0.48722  0.61733  0.35376  1.0000
  H   H38       1.0  0.38662  0.49796  0.36230  1.0000
  H   H39       1.0  0.52623  0.63687  0.35404  1.0000
  H   H40       1.0  0.38767  0.63666  0.33925  1.0000
  C   C46       1.0  0.37833  0.82078  0.34652  1.0000
  C   C47       1.0  0.40589  0.79461  0.34385  1.0000
  C   C48       1.0  0.45948  0.82036  0.35047  1.0000
  C   C49       1.0  0.48609  0.87402  0.35808  1.0000
  C   C50       1.0  0.45962  0.90156  0.35838  1.0000
  C   C51       1.0  0.40566  0.87445  0.35406  1.0000
  H   H41       1.0  0.52505  0.89318  0.36156  1.0000
  H   H42       1.0  0.38614  0.89393  0.35462  1.0000
  H   H43       1.0  0.38627  0.75556  0.33937  1.0000
  C   C52       1.0  0.82530  0.45615  0.34886  1.0000
  C   C53       1.0  0.79904  0.40241  0.34813  1.0000
  C   C54       1.0  0.82490  0.37461  0.35285  1.0000
  C   C55       1.0  0.87869  0.40170  0.35676  1.0000
  C   C56       1.0  0.90626  0.45571  0.35541  1.0000
  C   C57       1.0  0.87910  0.48253  0.35246  1.0000
  H   H44       1.0  0.89789  0.38191  0.35863  1.0000
  H   H45       1.0  0.89860  0.52153  0.35112  1.0000
  H   H46       1.0  0.75994  0.38297  0.34554  1.0000
  C   C58       1.0  0.56689  0.37380  0.34883  1.0000
  C   C59       1.0  0.62063  0.40129  0.34816  1.0000
  C   C60       1.0  0.64841  0.45495  0.35277  1.0000
  C   C61       1.0  0.62131  0.48164  0.35644  1.0000
  C   C62       1.0  0.56731  0.45519  0.35509  1.0000
  C   C63       1.0  0.54050  0.40120  0.35230  1.0000
  H   H47       1.0  0.64109  0.52064  0.35821  1.0000
  H   H48       1.0  0.50149  0.38169  0.35098  1.0000
  H   H49       1.0  0.64008  0.38164  0.34568  1.0000
  C   C64       1.0  0.64925  0.19772  0.34916  1.0000
  C   C65       1.0  0.62172  0.22393  0.34893  1.0000
  C   C66       1.0  0.56804  0.19798  0.35317  1.0000
  C   C67       1.0  0.54140  0.14417  0.35639  1.0000
  C   C68       1.0  0.56791  0.11668  0.35485  1.0000
  C   C69       1.0  0.62189  0.14391  0.35212  1.0000
  H   H50       1.0  0.50240  0.12492  0.35815  1.0000
  H   H51       1.0  0.64144  0.12445  0.35062  1.0000
  H   H52       1.0  0.64134  0.26304  0.34678  1.0000
  N   N11       1.0  0.98604  0.49545  0.43433  1.0000
  C   C70       1.0  0.49115  0.53151  0.53532  1.0000
  C   C71       1.0  0.50175  0.52113  0.44217  1.0000
  H   H53       1.0  0.46832  0.49557  0.57111  1.0000
  H   H54       1.0  0.47058  0.55243  0.53645  1.0000
  H   H55       1.0  0.52698  0.55390  0.57165  1.0000
  N   N12       1.0  0.52750  0.49517  0.43392  1.0000
  C   C72       1.0  0.48731  0.53618  0.36143  1.0000
  C   C73       1.0  0.49141  0.96424  0.53515  1.0000
  C   C74       1.0  0.50186  0.98520  0.44198  1.0000
  H   H56       1.0  0.52732  0.97735  0.57104  1.0000
  H   H57       1.0  0.47048  0.92274  0.53631  1.0000
  H   H58       1.0  0.46898  0.97768  0.57136  1.0000
  N   N13       1.0  0.52785  0.03690  0.43370  1.0000
  C   C75       1.0  0.48687  0.95569  0.36126  1.0000
  C   C76       1.0  0.32567  0.53950  0.35012  1.0000
  C   C77       1.0  0.29789  0.53609  0.42991  1.0000
  C   C78       1.0  0.31793  0.53879  0.52258  1.0000
  H   H59       1.0  0.32566  0.50770  0.53254  1.0000
  H   H60       1.0  0.35309  0.57496  0.53243  1.0000
  C   C79       1.0  0.48332  0.79059  0.34947  1.0000
  C   C80       1.0  0.48651  0.76630  0.42966  1.0000
  C   C81       1.0  0.48367  0.78370  0.52223  1.0000
  H   H61       1.0  0.51471  0.82255  0.53217  1.0000
  H   H62       1.0  0.48674  0.75954  0.57394  1.0000
  H   H63       1.0  0.44745  0.78264  0.53184  1.0000
  N   N14       1.0  0.48552  0.72109  0.42079  1.0000
  N   N15       1.0  0.30137  0.76900  0.42115  1.0000
  C   C82       1.0  0.70204  0.47890  0.35250  1.0000
  C   C83       1.0  0.72905  0.48123  0.43275  1.0000
  C   C84       1.0  0.70857  0.47788  0.52526  1.0000
  H   H64       1.0  0.70088  0.50897  0.53580  1.0000
  H   H65       1.0  0.73562  0.48055  0.57700  1.0000
  H   H66       1.0  0.67333  0.44170  0.53421  1.0000
  N   N16       1.0  0.77321  0.48018  0.42379  1.0000
  C   C85       1.0  0.54402  0.22755  0.35328  1.0000
  C   C86       1.0  0.54184  0.25259  0.43318  1.0000
  C   C87       1.0  0.54514  0.23552  0.52577  1.0000
  H   H67       1.0  0.51398  0.19680  0.53645  1.0000
  H   H68       1.0  0.54260  0.26002  0.57740  1.0000
  H   H69       1.0  0.58128  0.23635  0.53474  1.0000
  N   N17       1.0  0.54287  0.29779  0.42405  1.0000
  C   C88       1.0  0.79520  0.32099  0.35267  1.0000
  C   C89       1.0  0.77059  0.29402  0.43302  1.0000
  C   C90       1.0  0.78793  0.31455  0.52544  1.0000
  H   H70       1.0  0.82671  0.32218  0.53573  1.0000
  H   H71       1.0  0.76363  0.28756  0.57731  1.0000
  H   H72       1.0  0.78707  0.34984  0.53444  1.0000
  N   N18       1.0  0.72538  0.24984  0.42431  1.0000
