data_image0
_chemical_formula_structural       C13H9C13H9C13H9C13H9C2NC3H3OC2NC3H3OC2NC3H3ONCHNCHNCHC17H12C17H12C17H12C17H12NCHNCHNCHC2NC3H3OC2NC3H3OC2NC3H3O
_chemical_formula_sum              "C156 H108 N12 O6"
_cell_length_a       56.9797
_cell_length_b       56.9628
_cell_length_c       14.99
_cell_angle_alpha    90
_cell_angle_beta     90
_cell_angle_gamma    120.005

_space_group_name_H-M_alt    "P 1"
_space_group_IT_number       1

loop_
  _space_group_symop_operation_xyz
  'x, y, z'

loop_
  _atom_site_type_symbol
  _atom_site_label
  _atom_site_symmetry_multiplicity
  _atom_site_fract_x
  _atom_site_fract_y
  _atom_site_fract_z
  _atom_site_occupancy
  C   C1        1.0  0.90925  0.83728  0.32181  1.0000
  C   C2        1.0  0.93820  0.89512  0.32691  1.0000
  C   C3        1.0  0.91344  0.88081  0.27990  1.0000
  C   C4        1.0  0.89914  0.85230  0.27750  1.0000
  C   C5        1.0  0.95224  0.92333  0.32601  1.0000
  C   C6        1.0  0.06390  0.02863  0.33015  1.0000
  C   C7        1.0  0.10642  0.03238  0.28408  1.0000
  C   C8        1.0  0.14996  0.07171  0.32611  1.0000
  C   C9        1.0  0.13492  0.04663  0.28147  1.0000
  C   C10       1.0  0.96521  0.04205  0.33327  1.0000
  C   C11       1.0  0.92100  0.03882  0.32039  1.0000
  C   C12       1.0  0.91749  0.08002  0.32535  1.0000
  C   C13       1.0  0.90527  0.05154  0.31753  1.0000
  H   H1        1.0  0.88111  0.84261  0.24386  1.0000
  H   H2        1.0  0.90548  0.89103  0.24716  1.0000
  H   H3        1.0  0.91151  0.01818  0.31372  1.0000
  H   H4        1.0  0.09621  0.01429  0.25086  1.0000
  H   H5        1.0  0.14461  0.03838  0.24728  1.0000
  H   H6        1.0  0.88472  0.03969  0.31072  1.0000
  H   H7        1.0  0.05494  0.01998  0.27268  1.0000
  H   H8        1.0  0.95259  0.93241  0.26879  1.0000
  H   H9        1.0  0.98032  0.04863  0.28941  1.0000
  C   C14       1.0  0.52546  0.36679  0.34671  1.0000
  C   C15       1.0  0.48463  0.31094  0.33991  1.0000
  C   C16       1.0  0.50641  0.32010  0.40079  1.0000
  C   C17       1.0  0.52650  0.34760  0.40405  1.0000
  C   C18       1.0  0.46666  0.28346  0.33031  1.0000
  C   C19       1.0  0.35052  0.16929  0.32569  1.0000
  C   C20       1.0  0.30786  0.16087  0.26166  1.0000
  C   C21       1.0  0.26442  0.12871  0.33168  1.0000
  C   C22       1.0  0.27934  0.14729  0.26290  1.0000
  C   C23       1.0  0.45516  0.17031  0.32287  1.0000
  C   C24       1.0  0.49561  0.17524  0.25368  1.0000
  C   C25       1.0  0.52015  0.15403  0.31863  1.0000
  C   C26       1.0  0.51774  0.17076  0.25359  1.0000
  H   H10       1.0  0.54270  0.35314  0.44555  1.0000
  H   H11       1.0  0.50845  0.30665  0.44082  1.0000
  H   H12       1.0  0.49527  0.18842  0.20786  1.0000
  H   H13       1.0  0.31792  0.17432  0.21115  1.0000
  H   H14       1.0  0.26958  0.15143  0.21336  1.0000
  H   H15       1.0  0.53283  0.18118  0.20813  1.0000
  H   H16       1.0  0.35907  0.16974  0.26728  1.0000
  H   H17       1.0  0.46672  0.27505  0.27211  1.0000
  H   H18       1.0  0.44488  0.16859  0.26717  1.0000
  C   C27       1.0  0.62104  0.15869  0.34858  1.0000
  C   C28       1.0  0.67678  0.17330  0.34085  1.0000
  C   C29       1.0  0.66780  0.18585  0.40267  1.0000
  C   C30       1.0  0.64036  0.17866  0.40633  1.0000
  C   C31       1.0  0.70425  0.18298  0.33006  1.0000
  C   C32       1.0  0.81012  0.17341  0.32507  1.0000
  C   C33       1.0  0.81490  0.13422  0.29360  1.0000
  C   C34       1.0  0.85711  0.13426  0.32873  1.0000
  C   C35       1.0  0.83040  0.12124  0.29402  1.0000
  C   C36       1.0  0.81836  0.28583  0.32394  1.0000
  C   C37       1.0  0.81525  0.32179  0.24981  1.0000
  C   C38       1.0  0.83530  0.36724  0.31672  1.0000
  C   C39       1.0  0.81986  0.34845  0.24895  1.0000
  H   H19       1.0  0.63498  0.18934  0.44829  1.0000
  H   H20       1.0  0.68136  0.20126  0.44272  1.0000
  H   H21       1.0  0.80288  0.30847  0.20207  1.0000
  H   H22       1.0  0.79559  0.12399  0.26855  1.0000
  H   H23       1.0  0.82172  0.10188  0.26975  1.0000
  H   H24       1.0  0.81032  0.35334  0.20084  1.0000
  H   H25       1.0  0.79993  0.17165  0.26911  1.0000
  H   H26       1.0  0.71252  0.19208  0.27246  1.0000
  H   H27       1.0  0.82181  0.27748  0.27088  1.0000
  C   C40       1.0  0.82909  0.46262  0.34721  1.0000
  C   C41       1.0  0.81387  0.50330  0.34138  1.0000
  C   C42       1.0  0.80136  0.48146  0.40211  1.0000
  C   C43       1.0  0.80886  0.46143  0.40484  1.0000
  C   C44       1.0  0.80424  0.52118  0.33229  1.0000
  C   C45       1.0  0.80595  0.63680  0.32633  1.0000
  C   C46       1.0  0.84024  0.67926  0.26143  1.0000
  C   C47       1.0  0.85157  0.72288  0.33009  1.0000
  C   C48       1.0  0.85522  0.70778  0.26194  1.0000
  C   C49       1.0  0.70245  0.53298  0.32332  1.0000
  C   C50       1.0  0.66667  0.49335  0.25103  1.0000
  C   C51       1.0  0.62108  0.46824  0.31697  1.0000
  C   C52       1.0  0.64005  0.47124  0.25037  1.0000
  H   H28       1.0  0.79826  0.44518  0.44619  1.0000
  H   H29       1.0  0.78585  0.47929  0.44228  1.0000
  H   H30       1.0  0.68008  0.49404  0.20414  1.0000
  H   H31       1.0  0.84362  0.66905  0.21140  1.0000
  H   H32       1.0  0.86916  0.71741  0.21237  1.0000
  H   H33       1.0  0.63528  0.45652  0.20337  1.0000
  H   H34       1.0  0.79778  0.62810  0.26813  1.0000
  H   H35       1.0  0.79603  0.52139  0.27384  1.0000
  H   H36       1.0  0.71112  0.54367  0.26840  1.0000
  C   C53       1.0  0.17872  0.08630  0.32334  1.0000
  C   C54       1.0  0.23554  0.11467  0.33141  1.0000
  N   N1        1.0  0.22192  0.10759  0.25250  1.0000
  C   C55       1.0  0.19444  0.09371  0.24397  1.0000
  C   C56       1.0  0.18328  0.08869  0.15914  1.0000
  C   C57       1.0  0.17596  0.10785  0.12357  1.0000
  H   H37       1.0  0.16364  0.11154  0.17116  1.0000
  H   H38       1.0  0.16405  0.09981  0.06260  1.0000
  H   H39       1.0  0.19410  0.12712  0.10801  1.0000
  O   O1        1.0  0.19304  0.07991  0.10490  1.0000
  C   C58       1.0  0.90179  0.09310  0.32221  1.0000
  C   C59       1.0  0.87259  0.12084  0.32859  1.0000
  N   N2        1.0  0.86850  0.10251  0.26349  1.0000
  C   C60       1.0  0.88187  0.08837  0.25669  1.0000
  C   C61       1.0  0.87653  0.07140  0.18398  1.0000
  C   C62       1.0  0.89466  0.08110  0.10799  1.0000
  H   H40       1.0  0.91575  0.09387  0.12843  1.0000
  H   H41       1.0  0.88919  0.09279  0.06345  1.0000
  H   H42       1.0  0.89318  0.06387  0.07114  1.0000
  O   O2        1.0  0.85257  0.05583  0.16765  1.0000
  C   C63       1.0  0.89499  0.80852  0.31968  1.0000
  C   C64       1.0  0.86645  0.75174  0.32910  1.0000
  N   N3        1.0  0.87285  0.76518  0.24984  1.0000
  C   C65       1.0  0.88648  0.79264  0.24068  1.0000
  C   C66       1.0  0.89246  0.80363  0.15560  1.0000
  C   C67       1.0  0.91884  0.81079  0.11946  1.0000
  H   H43       1.0  0.93498  0.82316  0.16659  1.0000
  H   H44       1.0  0.92261  0.82258  0.05827  1.0000
  H   H45       1.0  0.91984  0.79256  0.10412  1.0000
  O   O3        1.0  0.87379  0.79381  0.10184  1.0000
  N   N4        1.0  0.58415  0.15490  0.26366  1.0000
  C   C68       1.0  0.56004  0.15363  0.25011  1.0000
  H   H46       1.0  0.55437  0.15474  0.18635  1.0000
  N   N5        1.0  0.83380  0.43013  0.26178  1.0000
  C   C69       1.0  0.83547  0.40752  0.24802  1.0000
  H   H47       1.0  0.83472  0.40098  0.18411  1.0000
  N   N6        1.0  0.55815  0.40397  0.26170  1.0000
  C   C70       1.0  0.58083  0.42822  0.24817  1.0000
  H   H48       1.0  0.58747  0.43401  0.18435  1.0000
  C   C71       1.0  0.93387  0.85151  0.36939  1.0000
  C   C72       1.0  0.94832  0.88002  0.37096  1.0000
  C   C73       1.0  0.96437  0.93889  0.39779  1.0000
  C   C74       1.0  0.97773  0.96689  0.39482  1.0000
  C   C75       1.0  0.96299  0.98075  0.39216  1.0000
  C   C76       1.0  0.97645  0.00940  0.39141  1.0000
  C   C77       1.0  0.00511  0.02411  0.39490  1.0000
  C   C78       1.0  0.02015  0.01054  0.39724  1.0000
  C   C79       1.0  0.00631  0.98191  0.39789  1.0000
  C   C80       1.0  0.04813  0.02517  0.40139  1.0000
  C   C81       1.0  0.09210  0.04273  0.33163  1.0000
  C   C82       1.0  0.10722  0.06786  0.37623  1.0000
  C   C83       1.0  0.13573  0.08196  0.37449  1.0000
  C   C84       1.0  0.96127  0.02233  0.39103  1.0000
  C   C85       1.0  0.94939  0.05425  0.33212  1.0000
  C   C86       1.0  0.96168  0.08269  0.34020  1.0000
  C   C87       1.0  0.94588  0.09536  0.33783  1.0000
  H   H49       1.0  0.94187  0.84123  0.40144  1.0000
  H   H50       1.0  0.96646  0.88964  0.40403  1.0000
  H   H51       1.0  0.01712  0.97195  0.40075  1.0000
  H   H52       1.0  0.94220  0.96983  0.39090  1.0000
  H   H53       1.0  0.01512  0.04489  0.39615  1.0000
  H   H54       1.0  0.14601  0.10021  0.40670  1.0000
  H   H55       1.0  0.09761  0.07633  0.40964  1.0000
  H   H56       1.0  0.95543  0.11603  0.34338  1.0000
  H   H57       1.0  0.98222  0.09444  0.34835  1.0000
  H   H58       1.0  0.05647  0.03319  0.45997  1.0000
  H   H59       1.0  0.96400  0.93035  0.45605  1.0000
  H   H60       1.0  0.94599  0.01575  0.43428  1.0000
  C   C88       1.0  0.50372  0.35748  0.28534  1.0000
  C   C89       1.0  0.48356  0.32992  0.28188  1.0000
  C   C90       1.0  0.45139  0.26761  0.39771  1.0000
  C   C91       1.0  0.43728  0.23964  0.39186  1.0000
  C   C92       1.0  0.45162  0.22536  0.39144  1.0000
  C   C93       1.0  0.43780  0.19674  0.38983  1.0000
  C   C94       1.0  0.40916  0.18231  0.38938  1.0000
  C   C95       1.0  0.39449  0.19632  0.39080  1.0000
  C   C96       1.0  0.40869  0.22497  0.39309  1.0000
  C   C97       1.0  0.36651  0.18235  0.39570  1.0000
  C   C98       1.0  0.32239  0.15616  0.32895  1.0000
  C   C99       1.0  0.30758  0.13724  0.39683  1.0000
  C   C100      1.0  0.27909  0.12388  0.39841  1.0000
  C   C101      1.0  0.45282  0.18374  0.39289  1.0000
  C   C102      1.0  0.47512  0.16316  0.31906  1.0000
  C   C103      1.0  0.47695  0.14589  0.38295  1.0000
  C   C104      1.0  0.49923  0.14156  0.38295  1.0000
  H   H61       1.0  0.50268  0.37066  0.24126  1.0000
  H   H62       1.0  0.46849  0.32373  0.23519  1.0000
  H   H63       1.0  0.39818  0.23523  0.39572  1.0000
  H   H64       1.0  0.47242  0.23597  0.39306  1.0000
  H   H65       1.0  0.39897  0.16153  0.39021  1.0000
  H   H66       1.0  0.26919  0.10992  0.44763  1.0000
  H   H67       1.0  0.31740  0.13278  0.44532  1.0000
  H   H68       1.0  0.50021  0.12949  0.43163  1.0000
  H   H69       1.0  0.46258  0.13710  0.43183  1.0000
  H   H70       1.0  0.35824  0.18304  0.45340  1.0000
  H   H71       1.0  0.45179  0.27578  0.45678  1.0000
  H   H72       1.0  0.46499  0.18770  0.44530  1.0000
  C   C105      1.0  0.63018  0.14627  0.28649  1.0000
  C   C106      1.0  0.65768  0.15349  0.28250  1.0000
  C   C107      1.0  0.72032  0.18314  0.39602  1.0000
  C   C108      1.0  0.74831  0.19769  0.39011  1.0000
  C   C109      1.0  0.76183  0.22632  0.39003  1.0000
  C   C110      1.0  0.79041  0.24188  0.38887  1.0000
  C   C111      1.0  0.80557  0.22843  0.38930  1.0000
  C   C112      1.0  0.79240  0.19980  0.38990  1.0000
  C   C113      1.0  0.76375  0.18455  0.39108  1.0000
  C   C114      1.0  0.80764  0.18709  0.39411  1.0000
  C   C115      1.0  0.82560  0.16076  0.32771  1.0000
  C   C116      1.0  0.85247  0.17413  0.36053  1.0000
  C   C117      1.0  0.86787  0.16104  0.36146  1.0000
  C   C118      1.0  0.80272  0.26988  0.39059  1.0000
  C   C119      1.0  0.82584  0.31299  0.31897  1.0000
  C   C120      1.0  0.84195  0.33173  0.38545  1.0000
  C   C121      1.0  0.84650  0.35840  0.38436  1.0000
  H   H73       1.0  0.61693  0.13226  0.24206  1.0000
  H   H74       1.0  0.66375  0.14469  0.23510  1.0000
  H   H75       1.0  0.75410  0.16379  0.39351  1.0000
  H   H76       1.0  0.75069  0.23597  0.39136  1.0000
  H   H77       1.0  0.82634  0.23959  0.39010  1.0000
  H   H78       1.0  0.88736  0.17168  0.38433  1.0000
  H   H79       1.0  0.86122  0.19365  0.38333  1.0000
  H   H80       1.0  0.85760  0.37116  0.43512  1.0000
  H   H81       1.0  0.84965  0.32583  0.43694  1.0000
  H   H82       1.0  0.81756  0.18892  0.45068  1.0000
  H   H83       1.0  0.71231  0.17486  0.45474  1.0000
  H   H84       1.0  0.79737  0.27804  0.43972  1.0000
  C   C122      1.0  0.84138  0.48440  0.28593  1.0000
  C   C123      1.0  0.83388  0.50449  0.28294  1.0000
  C   C124      1.0  0.80335  0.53612  0.40022  1.0000
  C   C125      1.0  0.78951  0.55022  0.39440  1.0000
  C   C126      1.0  0.76089  0.53587  0.39326  1.0000
  C   C127      1.0  0.74611  0.54969  0.39093  1.0000
  C   C128      1.0  0.76033  0.57834  0.39050  1.0000
  C   C129      1.0  0.78900  0.59301  0.39261  1.0000
  C   C130      1.0  0.80344  0.57881  0.39558  1.0000
  C   C131      1.0  0.80301  0.62099  0.39689  1.0000
  C   C132      1.0  0.82097  0.66492  0.32883  1.0000
  C   C133      1.0  0.81686  0.67991  0.39608  1.0000
  C   C134      1.0  0.83205  0.70840  0.39697  1.0000
  C   C135      1.0  0.71808  0.53465  0.39296  1.0000
  C   C136      1.0  0.67527  0.51322  0.31865  1.0000
  C   C137      1.0  0.65633  0.51087  0.38398  1.0000
  C   C138      1.0  0.62971  0.48864  0.38326  1.0000
  H   H85       1.0  0.85558  0.48553  0.24160  1.0000
  H   H86       1.0  0.84267  0.51960  0.23633  1.0000
  H   H87       1.0  0.82421  0.58933  0.39847  1.0000
  H   H88       1.0  0.75070  0.51506  0.39469  1.0000
  H   H89       1.0  0.74975  0.58854  0.39065  1.0000
  H   H90       1.0  0.82802  0.71845  0.44571  1.0000
  H   H91       1.0  0.80256  0.67022  0.44463  1.0000
  H   H92       1.0  0.61680  0.48724  0.43314  1.0000
  H   H93       1.0  0.66205  0.52479  0.43441  1.0000
  H   H94       1.0  0.81204  0.62940  0.45437  1.0000
  H   H95       1.0  0.81097  0.53556  0.45942  1.0000
  H   H96       1.0  0.70971  0.52214  0.44452  1.0000
  N   N7        1.0  0.19221  0.09376  0.40242  1.0000
  C   C139      1.0  0.21959  0.10734  0.40960  1.0000
  H   H97       1.0  0.22811  0.11242  0.47162  1.0000
  N   N8        1.0  0.90605  0.11149  0.38720  1.0000
  C   C140      1.0  0.89254  0.12538  0.39292  1.0000
  H   H98       1.0  0.89664  0.13834  0.44525  1.0000
  N   N9        1.0  0.88909  0.79522  0.39909  1.0000
  C   C141      1.0  0.87526  0.76785  0.40693  1.0000
  H   H99       1.0  0.87190  0.75945  0.46912  1.0000
  C   C142      1.0  0.59401  0.15389  0.34536  1.0000
  C   C143      1.0  0.54402  0.15193  0.32440  1.0000
  N   N10       1.0  0.55365  0.15030  0.40588  1.0000
  C   C144      1.0  0.57755  0.15090  0.42061  1.0000
  C   C145      1.0  0.58452  0.14847  0.50738  1.0000
  C   C146      1.0  0.57954  0.12199  0.53538  1.0000
  H   H100      1.0  0.55781  0.10795  0.54246  1.0000
  H   H101      1.0  0.58934  0.12354  0.59955  1.0000
  H   H102      1.0  0.58780  0.11363  0.48725  1.0000
  O   O4        1.0  0.58031  0.16131  0.56443  1.0000
  C   C147      1.0  0.83437  0.44072  0.34362  1.0000
  C   C148      1.0  0.83713  0.39313  0.32220  1.0000
  N   N11       1.0  0.83838  0.40420  0.40376  1.0000
  C   C149      1.0  0.83741  0.42727  0.41883  1.0000
  C   C150      1.0  0.83964  0.43653  0.50580  1.0000
  C   C151      1.0  0.86563  0.45864  0.53452  1.0000
  H   H103      1.0  0.88028  0.45172  0.54146  1.0000
  H   H104      1.0  0.86355  0.46643  0.59888  1.0000
  H   H105      1.0  0.87349  0.47537  0.48683  1.0000
  O   O5        1.0  0.82681  0.41911  0.56188  1.0000
  C   C152      1.0  0.54744  0.39395  0.34344  1.0000
  C   C153      1.0  0.59519  0.44421  0.32250  1.0000
  N   N12       1.0  0.58405  0.43440  0.40399  1.0000
  C   C154      1.0  0.56090  0.41038  0.41875  1.0000
  C   C155      1.0  0.55161  0.40330  0.50558  1.0000
  C   C156      1.0  0.53002  0.40809  0.53407  1.0000
  H   H106      1.0  0.53760  0.42980  0.54133  1.0000
  H   H107      1.0  0.52189  0.39824  0.59825  1.0000
  H   H108      1.0  0.51336  0.39976  0.48613  1.0000
  O   O6        1.0  0.56874  0.40758  0.56236  1.0000
