data_image0
_chemical_formula_structural       NC12H6N4C12H6N4C12H6N4C12H6N4C12H6N4C12H6N3C4H3CH3CHC4H3CH3CHC4H3CH3CHC3H2CHC3H2CHC3H2CHC3H2CHC3H2CHC3H2CHC6H6C6H6C6H6C6H6C6H6C6H6C3H2CHC3H2CHC3H2CHC4H3CH3CHC4H3CH3CHC4H3CH3CHC4H3CH3CHC4H3CH3CHC4H3CH3CH
_chemical_formula_sum              "N24 C198 H162"
_cell_length_a       67.5346
_cell_length_b       67.5347
_cell_length_c       14.9434
_cell_angle_alpha    90
_cell_angle_beta     90
_cell_angle_gamma    120

_space_group_name_H-M_alt    "P 1"
_space_group_IT_number       1

loop_
  _space_group_symop_operation_xyz
  'x, y, z'

loop_
  _atom_site_type_symbol
  _atom_site_label
  _atom_site_symmetry_multiplicity
  _atom_site_fract_x
  _atom_site_fract_y
  _atom_site_fract_z
  _atom_site_occupancy
  N   N1        1.0  0.16103  0.58186  0.32545  1.0000
  C   C1        1.0  0.17349  0.57012  0.33087  1.0000
  C   C2        1.0  0.17400  0.60608  0.32700  1.0000
  C   C3        1.0  0.13681  0.57009  0.32268  1.0000
  C   C4        1.0  0.20671  0.65352  0.33709  1.0000
  C   C5        1.0  0.20268  0.64153  0.25536  1.0000
  C   C6        1.0  0.18653  0.61806  0.25052  1.0000
  C   C7        1.0  0.20569  0.55457  0.33545  1.0000
  C   C8        1.0  0.19435  0.55397  0.25518  1.0000
  C   C9        1.0  0.17846  0.56171  0.25274  1.0000
  C   C10       1.0  0.08810  0.54681  0.31706  1.0000
  C   C11       1.0  0.10120  0.56071  0.24499  1.0000
  C   C12       1.0  0.12527  0.57198  0.24726  1.0000
  H   H1        1.0  0.21243  0.64946  0.20025  1.0000
  H   H2        1.0  0.18480  0.60945  0.19207  1.0000
  H   H3        1.0  0.17158  0.56247  0.19276  1.0000
  H   H4        1.0  0.19847  0.54901  0.19665  1.0000
  H   H5        1.0  0.09327  0.56256  0.18986  1.0000
  H   H6        1.0  0.13439  0.58182  0.19395  1.0000
  N   N2        1.0  0.06541  0.53702  0.31277  1.0000
  N   N3        1.0  0.22219  0.54922  0.33038  1.0000
  N   N4        1.0  0.22396  0.67473  0.34806  1.0000
  N   N5        1.0  0.42286  0.58013  0.32557  1.0000
  C   C13       1.0  0.43461  0.60433  0.33088  1.0000
  C   C14       1.0  0.39865  0.56890  0.32703  1.0000
  C   C15       1.0  0.43464  0.56768  0.32276  1.0000
  C   C16       1.0  0.35122  0.55419  0.33722  1.0000
  C   C17       1.0  0.36320  0.56216  0.25548  1.0000
  C   C18       1.0  0.38667  0.56944  0.25054  1.0000
  C   C19       1.0  0.45016  0.65208  0.33541  1.0000
  C   C20       1.0  0.45076  0.64133  0.25515  1.0000
  C   C21       1.0  0.44305  0.61771  0.25275  1.0000
  C   C22       1.0  0.45790  0.54224  0.31714  1.0000
  C   C23       1.0  0.44400  0.54144  0.24508  1.0000
  C   C24       1.0  0.43273  0.55424  0.24735  1.0000
  H   H7        1.0  0.35527  0.56399  0.20037  1.0000
  H   H8        1.0  0.39528  0.57636  0.19216  1.0000
  H   H9        1.0  0.44229  0.61006  0.19279  1.0000
  H   H10       1.0  0.45576  0.65042  0.19664  1.0000
  H   H11       1.0  0.44215  0.53166  0.18996  1.0000
  H   H12       1.0  0.42288  0.55351  0.19407  1.0000
  N   N6        1.0  0.46770  0.52934  0.31283  1.0000
  N   N7        1.0  0.45552  0.67393  0.33031  1.0000
  N   N8        1.0  0.32998  0.55016  0.34813  1.0000
  N   N9        1.0  0.42463  0.84369  0.32548  1.0000
  C   C25       1.0  0.40043  0.83121  0.33081  1.0000
  C   C26       1.0  0.43590  0.83073  0.32706  1.0000
  C   C27       1.0  0.43706  0.86791  0.32267  1.0000
  C   C28       1.0  0.45062  0.79802  0.33725  1.0000
  C   C29       1.0  0.44268  0.80205  0.25547  1.0000
  C   C30       1.0  0.43535  0.81820  0.25058  1.0000
  C   C31       1.0  0.35269  0.79900  0.33539  1.0000
  C   C32       1.0  0.36343  0.81034  0.25512  1.0000
  C   C33       1.0  0.38705  0.82624  0.25269  1.0000
  C   C34       1.0  0.46247  0.91661  0.31702  1.0000
  C   C35       1.0  0.46329  0.90351  0.24500  1.0000
  C   C36       1.0  0.45050  0.87945  0.24727  1.0000
  H   H13       1.0  0.44080  0.79226  0.20044  1.0000
  H   H14       1.0  0.42841  0.81987  0.19222  1.0000
  H   H15       1.0  0.39469  0.83317  0.19275  1.0000
  H   H16       1.0  0.35433  0.80627  0.19663  1.0000
  H   H17       1.0  0.47307  0.91144  0.18988  1.0000
  H   H18       1.0  0.45124  0.87033  0.19400  1.0000
  N   N10       1.0  0.47537  0.93931  0.31273  1.0000
  N   N11       1.0  0.33083  0.78252  0.33036  1.0000
  N   N12       1.0  0.45466  0.78082  0.34818  1.0000
  N   N13       1.0  0.84465  0.42255  0.32158  1.0000
  C   C37       1.0  0.83197  0.43406  0.32744  1.0000
  C   C38       1.0  0.83191  0.39832  0.32328  1.0000
  C   C39       1.0  0.86887  0.43458  0.32007  1.0000
  C   C40       1.0  0.79938  0.35085  0.33399  1.0000
  C   C41       1.0  0.80338  0.36274  0.25202  1.0000
  C   C42       1.0  0.81944  0.38624  0.24686  1.0000
  C   C43       1.0  0.79953  0.44929  0.33247  1.0000
  C   C44       1.0  0.81092  0.45004  0.25213  1.0000
  C   C45       1.0  0.82690  0.44243  0.24944  1.0000
  C   C46       1.0  0.91764  0.45863  0.31632  1.0000
  C   C47       1.0  0.90484  0.44524  0.24270  1.0000
  C   C48       1.0  0.88075  0.43353  0.24415  1.0000
  H   H19       1.0  0.79360  0.35475  0.19704  1.0000
  H   H20       1.0  0.82107  0.39478  0.18836  1.0000
  H   H21       1.0  0.83387  0.44183  0.18945  1.0000
  H   H22       1.0  0.80677  0.45503  0.19372  1.0000
  H   H23       1.0  0.91300  0.44406  0.18696  1.0000
  H   H24       1.0  0.87187  0.42408  0.18971  1.0000
  N   N14       1.0  0.94039  0.46891  0.31162  1.0000
  N   N15       1.0  0.78299  0.45458  0.32765  1.0000
  N   N16       1.0  0.78215  0.32964  0.34522  1.0000
  N   N17       1.0  0.58217  0.42306  0.32151  1.0000
  C   C49       1.0  0.57065  0.39887  0.32746  1.0000
  C   C50       1.0  0.60639  0.43455  0.32326  1.0000
  C   C51       1.0  0.57014  0.43525  0.32002  1.0000
  C   C52       1.0  0.65388  0.44948  0.33390  1.0000
  C   C53       1.0  0.64197  0.44157  0.25198  1.0000
  C   C54       1.0  0.61848  0.43414  0.24686  1.0000
  C   C55       1.0  0.55543  0.35120  0.33260  1.0000
  C   C56       1.0  0.55469  0.36183  0.25222  1.0000
  C   C57       1.0  0.56226  0.38541  0.24950  1.0000
  C   C58       1.0  0.54607  0.45995  0.31623  1.0000
  C   C59       1.0  0.55946  0.46054  0.24261  1.0000
  C   C60       1.0  0.57118  0.44817  0.24409  1.0000
  H   H25       1.0  0.64997  0.43982  0.19695  1.0000
  H   H26       1.0  0.60993  0.42726  0.18832  1.0000
  H   H27       1.0  0.56292  0.39298  0.18944  1.0000
  H   H28       1.0  0.54973  0.35269  0.19382  1.0000
  H   H29       1.0  0.56064  0.46988  0.18685  1.0000
  H   H30       1.0  0.58062  0.44873  0.18962  1.0000
  N   N18       1.0  0.53579  0.47242  0.31152  1.0000
  N   N19       1.0  0.55018  0.32938  0.32780  1.0000
  N   N20       1.0  0.67509  0.45346  0.34517  1.0000
  N   N21       1.0  0.58168  0.16007  0.32163  1.0000
  C   C61       1.0  0.60587  0.17272  0.32746  1.0000
  C   C62       1.0  0.57021  0.17282  0.32331  1.0000
  C   C63       1.0  0.56948  0.13584  0.32010  1.0000
  C   C64       1.0  0.55533  0.20541  0.33404  1.0000
  C   C65       1.0  0.56325  0.20143  0.25211  1.0000
  C   C66       1.0  0.57061  0.18531  0.24690  1.0000
  C   C67       1.0  0.65354  0.20516  0.33255  1.0000
  C   C68       1.0  0.64291  0.19379  0.25218  1.0000
  C   C69       1.0  0.61933  0.17777  0.24950  1.0000
  C   C70       1.0  0.54476  0.08708  0.31631  1.0000
  C   C71       1.0  0.54417  0.09989  0.24270  1.0000
  C   C72       1.0  0.55656  0.12398  0.24417  1.0000
  H   H31       1.0  0.56501  0.21118  0.19708  1.0000
  H   H32       1.0  0.57754  0.18368  0.18843  1.0000
  H   H33       1.0  0.61176  0.17084  0.18947  1.0000
  H   H34       1.0  0.65206  0.19793  0.19380  1.0000
  H   H35       1.0  0.53483  0.09173  0.18696  1.0000
  H   H36       1.0  0.55599  0.13286  0.18974  1.0000
  N   N22       1.0  0.53228  0.06433  0.31159  1.0000
  N   N23       1.0  0.67537  0.22173  0.32772  1.0000
  N   N24       1.0  0.55131  0.22261  0.34525  1.0000
  C   C73       1.0  0.97907  0.49497  0.33506  1.0000
  C   C74       1.0  0.99102  0.50160  0.25162  1.0000
  C   C75       1.0  0.01490  0.50847  0.24856  1.0000
  C   C76       1.0  0.97895  0.50179  0.16766  1.0000
  H   H37       1.0  0.96143  0.49799  0.17788  1.0000
  H   H38       1.0  0.97836  0.48916  0.12061  1.0000
  H   H39       1.0  0.98798  0.51867  0.13674  1.0000
  C   C77       1.0  0.02705  0.51382  0.16026  1.0000
  H   H40       1.0  0.04448  0.51696  0.16386  1.0000
  H   H41       1.0  0.02782  0.52901  0.13123  1.0000
  H   H42       1.0  0.01797  0.49948  0.11442  1.0000
  C   C78       1.0  0.95601  0.48778  0.34599  1.0000
  H   H43       1.0  0.95178  0.49724  0.38361  1.0000
  C   C79       1.0  0.50973  0.48504  0.33501  1.0000
  C   C80       1.0  0.50311  0.49037  0.25158  1.0000
  C   C81       1.0  0.49625  0.50739  0.24857  1.0000
  C   C82       1.0  0.50293  0.47812  0.16759  1.0000
  H   H44       1.0  0.50672  0.46440  0.17778  1.0000
  H   H45       1.0  0.51556  0.49018  0.12057  1.0000
  H   H46       1.0  0.48605  0.47029  0.13665  1.0000
  C   C83       1.0  0.49090  0.51420  0.16028  1.0000
  H   H47       1.0  0.48777  0.52850  0.16391  1.0000
  H   H48       1.0  0.47571  0.49978  0.13123  1.0000
  H   H49       1.0  0.50525  0.51946  0.11445  1.0000
  C   C84       1.0  0.51692  0.46917  0.34589  1.0000
  H   H50       1.0  0.50747  0.45547  0.38357  1.0000
  C   C85       1.0  0.51965  0.02565  0.33502  1.0000
  C   C86       1.0  0.51435  0.01370  0.25157  1.0000
  C   C87       1.0  0.49734  0.98982  0.24852  1.0000
  C   C88       1.0  0.52661  0.02578  0.16763  1.0000
  H   H51       1.0  0.54032  0.04329  0.17786  1.0000
  H   H52       1.0  0.51456  0.02635  0.12055  1.0000
  H   H53       1.0  0.53446  0.01674  0.13672  1.0000
  C   C89       1.0  0.49054  0.97767  0.16021  1.0000
  H   H54       1.0  0.47625  0.96023  0.16380  1.0000
  H   H55       1.0  0.50497  0.97690  0.13120  1.0000
  H   H56       1.0  0.48528  0.98675  0.11436  1.0000
  C   C90       1.0  0.53552  0.04870  0.34595  1.0000
  H   H57       1.0  0.54923  0.05294  0.38356  1.0000
  C   C91       1.0  0.29266  0.54094  0.31917  1.0000
  C   C92       1.0  0.28660  0.55408  0.26441  1.0000
  C   C93       1.0  0.26791  0.55675  0.28573  1.0000
  H   H58       1.0  0.26475  0.56725  0.24601  1.0000
  H   H59       1.0  0.29625  0.56263  0.20964  1.0000
  C   C94       1.0  0.31260  0.54107  0.29551  1.0000
  H   H60       1.0  0.31393  0.53598  0.23442  1.0000
  C   C95       1.0  0.46386  0.75272  0.31920  1.0000
  C   C96       1.0  0.45072  0.73352  0.26434  1.0000
  C   C97       1.0  0.44803  0.71215  0.28560  1.0000
  H   H61       1.0  0.43750  0.69850  0.24592  1.0000
  H   H62       1.0  0.44215  0.73464  0.20967  1.0000
  C   C98       1.0  0.46376  0.77254  0.29557  1.0000
  H   H63       1.0  0.46880  0.77892  0.23440  1.0000
  C   C99       1.0  0.25206  0.71206  0.31916  1.0000
  C   C100      1.0  0.27127  0.71813  0.26438  1.0000
  C   C101      1.0  0.29263  0.73682  0.28570  1.0000
  H   H64       1.0  0.30628  0.73998  0.24598  1.0000
  H   H65       1.0  0.27017  0.70848  0.20960  1.0000
  C   C102      1.0  0.23227  0.69213  0.29548  1.0000
  H   H66       1.0  0.22581  0.69084  0.23448  1.0000
  C   C103      1.0  0.71245  0.46273  0.31673  1.0000
  C   C104      1.0  0.71861  0.44973  0.26149  1.0000
  C   C105      1.0  0.73727  0.44702  0.28275  1.0000
  H   H67       1.0  0.74047  0.43660  0.24274  1.0000
  H   H68       1.0  0.70900  0.44127  0.20651  1.0000
  C   C106      1.0  0.69255  0.46265  0.29295  1.0000
  H   H69       1.0  0.69133  0.46789  0.23202  1.0000
  C   C107      1.0  0.54205  0.25071  0.31682  1.0000
  C   C108      1.0  0.55509  0.26988  0.26175  1.0000
  C   C109      1.0  0.55780  0.29125  0.28306  1.0000
  H   H70       1.0  0.56820  0.30488  0.24304  1.0000
  H   H71       1.0  0.56354  0.26875  0.20670  1.0000
  C   C110      1.0  0.54214  0.23089  0.29299  1.0000
  H   H72       1.0  0.53695  0.22445  0.23199  1.0000
  C   C111      1.0  0.75405  0.29227  0.31678  1.0000
  C   C112      1.0  0.73489  0.28612  0.26161  1.0000
  C   C113      1.0  0.71352  0.26745  0.28288  1.0000
  H   H73       1.0  0.69990  0.26426  0.24290  1.0000
  H   H74       1.0  0.73603  0.29574  0.20665  1.0000
  C   C114      1.0  0.77387  0.31218  0.29300  1.0000
  H   H75       1.0  0.78033  0.31340  0.23206  1.0000
  C   C115      1.0  0.17758  0.61812  0.40809  1.0000
  C   C116      1.0  0.19396  0.64156  0.41323  1.0000
  C   C117      1.0  0.18402  0.56983  0.41205  1.0000
  C   C118      1.0  0.19987  0.56210  0.41445  1.0000
  C   C119      1.0  0.12376  0.55653  0.39553  1.0000
  C   C120      1.0  0.09968  0.54498  0.39274  1.0000
  H   H76       1.0  0.16935  0.60955  0.46501  1.0000
  H   H77       1.0  0.19713  0.64965  0.47385  1.0000
  H   H78       1.0  0.18105  0.57634  0.46901  1.0000
  H   H79       1.0  0.20768  0.56283  0.47388  1.0000
  H   H80       1.0  0.13176  0.55513  0.45126  1.0000
  H   H81       1.0  0.09065  0.53554  0.44696  1.0000
  C   C121      1.0  0.38661  0.56042  0.40813  1.0000
  C   C122      1.0  0.36317  0.55335  0.41329  1.0000
  C   C123      1.0  0.43488  0.61516  0.41204  1.0000
  C   C124      1.0  0.44265  0.63874  0.41443  1.0000
  C   C125      1.0  0.44820  0.56819  0.39559  1.0000
  C   C126      1.0  0.45974  0.55566  0.39280  1.0000
  H   H82       1.0  0.39519  0.56071  0.46497  1.0000
  H   H83       1.0  0.35507  0.54837  0.47388  1.0000
  H   H84       1.0  0.42836  0.60568  0.46899  1.0000
  H   H85       1.0  0.44188  0.64582  0.47381  1.0000
  H   H86       1.0  0.44962  0.57760  0.45131  1.0000
  H   H87       1.0  0.46919  0.55607  0.44699  1.0000
  C   C127      1.0  0.44441  0.82721  0.40812  1.0000
  C   C128      1.0  0.45145  0.81081  0.41333  1.0000
  C   C129      1.0  0.38962  0.82067  0.41199  1.0000
  C   C130      1.0  0.36603  0.80483  0.41440  1.0000
  C   C131      1.0  0.43654  0.88096  0.39548  1.0000
  C   C132      1.0  0.44905  0.90503  0.39267  1.0000
  H   H88       1.0  0.44406  0.83544  0.46501  1.0000
  H   H89       1.0  0.45641  0.80768  0.47392  1.0000
  H   H90       1.0  0.39909  0.82364  0.46894  1.0000
  H   H91       1.0  0.35896  0.79700  0.47382  1.0000
  H   H92       1.0  0.42713  0.87296  0.45121  1.0000
  H   H93       1.0  0.44864  0.91407  0.44688  1.0000
  C   C133      1.0  0.82843  0.38637  0.40455  1.0000
  C   C134      1.0  0.81211  0.36292  0.41000  1.0000
  C   C135      1.0  0.82138  0.43418  0.40869  1.0000
  C   C136      1.0  0.80544  0.44179  0.41135  1.0000
  C   C137      1.0  0.88159  0.44766  0.39438  1.0000
  C   C138      1.0  0.90568  0.45955  0.39257  1.0000
  H   H94       1.0  0.83661  0.39502  0.46141  1.0000
  H   H95       1.0  0.80898  0.35489  0.47074  1.0000
  H   H96       1.0  0.82447  0.42775  0.46559  1.0000
  H   H97       1.0  0.79761  0.44098  0.47082  1.0000
  H   H98       1.0  0.87334  0.44845  0.45047  1.0000
  H   H99       1.0  0.91441  0.46858  0.44796  1.0000
  C   C139      1.0  0.61836  0.44300  0.40452  1.0000
  C   C140      1.0  0.64182  0.45015  0.40993  1.0000
  C   C141      1.0  0.57051  0.38817  0.40874  1.0000
  C   C142      1.0  0.56294  0.36462  0.41142  1.0000
  C   C143      1.0  0.55708  0.43491  0.39436  1.0000
  C   C144      1.0  0.54518  0.44710  0.39254  1.0000
  H   H100      1.0  0.60971  0.44253  0.46139  1.0000
  H   H101      1.0  0.64984  0.45502  0.47069  1.0000
  H   H102      1.0  0.57699  0.39770  0.46558  1.0000
  H   H103      1.0  0.56376  0.35762  0.47092  1.0000
  H   H104      1.0  0.55630  0.42588  0.45047  1.0000
  H   H105      1.0  0.53615  0.44681  0.44794  1.0000
  C   C145      1.0  0.56176  0.17633  0.40457  1.0000
  C   C146      1.0  0.55460  0.19263  0.41000  1.0000
  C   C147      1.0  0.61658  0.18331  0.40872  1.0000
  C   C148      1.0  0.64014  0.19926  0.41139  1.0000
  C   C149      1.0  0.56983  0.12312  0.39441  1.0000
  C   C150      1.0  0.55763  0.09904  0.39259  1.0000
  H   H106      1.0  0.56217  0.16810  0.46137  1.0000
  H   H107      1.0  0.54968  0.19575  0.47073  1.0000
  H   H108      1.0  0.60705  0.18027  0.46555  1.0000
  H   H109      1.0  0.64714  0.20712  0.47084  1.0000
  H   H110      1.0  0.57888  0.13137  0.45051  1.0000
  H   H111      1.0  0.55793  0.09030  0.44796  1.0000
  C   C151      1.0  0.02674  0.50980  0.32972  1.0000
  C   C152      1.0  0.01452  0.50344  0.41110  1.0000
  C   C153      1.0  0.99113  0.49607  0.41368  1.0000
  H   H112      1.0  0.98302  0.49158  0.47448  1.0000
  H   H113      1.0  0.02255  0.50410  0.47021  1.0000
  C   C154      1.0  0.04987  0.51673  0.33555  1.0000
  H   H114      1.0  0.05429  0.50589  0.36134  1.0000
  C   C155      1.0  0.49491  0.51789  0.32975  1.0000
  C   C156      1.0  0.50127  0.51202  0.41111  1.0000
  C   C157      1.0  0.50863  0.49599  0.41365  1.0000
  H   H115      1.0  0.51312  0.49236  0.47444  1.0000
  H   H116      1.0  0.50061  0.51938  0.47024  1.0000
  C   C158      1.0  0.48798  0.53409  0.33563  1.0000
  H   H117      1.0  0.49882  0.54934  0.36140  1.0000
  C   C159      1.0  0.48682  0.97797  0.32967  1.0000
  C   C160      1.0  0.49267  0.99020  0.41104  1.0000
  C   C161      1.0  0.50870  0.01358  0.41363  1.0000
  H   H118      1.0  0.51231  0.02170  0.47444  1.0000
  H   H119      1.0  0.48531  0.98217  0.47015  1.0000
  C   C162      1.0  0.47062  0.95485  0.33549  1.0000
  H   H120      1.0  0.45536  0.95043  0.36125  1.0000
  C   C163      1.0  0.25452  0.54628  0.36237  1.0000
  C   C164      1.0  0.25986  0.53233  0.41786  1.0000
  C   C165      1.0  0.27898  0.52946  0.39563  1.0000
  C   C166      1.0  0.24563  0.52062  0.49881  1.0000
  H   H121      1.0  0.23128  0.52347  0.50911  1.0000
  H   H122      1.0  0.25623  0.52663  0.55882  1.0000
  H   H123      1.0  0.23836  0.50218  0.49299  1.0000
  C   C167      1.0  0.28439  0.51447  0.45245  1.0000
  H   H124      1.0  0.29853  0.51258  0.42785  1.0000
  H   H125      1.0  0.26962  0.49726  0.45555  1.0000
  H   H126      1.0  0.28878  0.52143  0.52008  1.0000
  C   C168      1.0  0.23827  0.55228  0.38473  1.0000
  H   H127      1.0  0.24014  0.56023  0.44270  1.0000
  C   C169      1.0  0.45848  0.70922  0.36224  1.0000
  C   C170      1.0  0.47242  0.72848  0.41784  1.0000
  C   C171      1.0  0.47531  0.75048  0.39567  1.0000
  C   C172      1.0  0.48409  0.72592  0.49882  1.0000
  H   H128      1.0  0.48123  0.70872  0.50904  1.0000
  H   H129      1.0  0.47808  0.73051  0.55882  1.0000
  H   H130      1.0  0.50255  0.73709  0.49310  1.0000
  C   C173      1.0  0.49030  0.77086  0.45259  1.0000
  H   H131      1.0  0.49221  0.78690  0.42805  1.0000
  H   H132      1.0  0.50751  0.77329  0.45571  1.0000
  H   H133      1.0  0.48332  0.76828  0.52019  1.0000
  C   C174      1.0  0.45242  0.68694  0.38458  1.0000
  H   H134      1.0  0.44444  0.68086  0.44247  1.0000
  C   C175      1.0  0.29554  0.75020  0.36236  1.0000
  C   C176      1.0  0.27626  0.74486  0.41787  1.0000
  C   C177      1.0  0.25427  0.72574  0.39563  1.0000
  C   C178      1.0  0.27878  0.75908  0.49884  1.0000
  H   H135      1.0  0.29598  0.77343  0.50915  1.0000
  H   H136      1.0  0.27419  0.74848  0.55883  1.0000
  H   H137      1.0  0.26760  0.76635  0.49305  1.0000
  C   C179      1.0  0.23387  0.72033  0.45246  1.0000
  H   H138      1.0  0.21784  0.70619  0.42785  1.0000
  H   H139      1.0  0.23143  0.73510  0.45559  1.0000
  H   H140      1.0  0.23644  0.71593  0.52007  1.0000
  C   C180      1.0  0.31780  0.76645  0.38474  1.0000
  H   H141      1.0  0.32388  0.76455  0.44264  1.0000
  C   C181      1.0  0.75056  0.45733  0.35976  1.0000
  C   C182      1.0  0.74513  0.47112  0.41580  1.0000
  C   C183      1.0  0.72603  0.47402  0.39362  1.0000
  C   C184      1.0  0.75925  0.48262  0.49720  1.0000
  H   H142      1.0  0.77359  0.47976  0.50741  1.0000
  H   H143      1.0  0.74857  0.47647  0.55697  1.0000
  H   H144      1.0  0.76652  0.50108  0.49209  1.0000
  C   C185      1.0  0.72054  0.48887  0.45100  1.0000
  H   H145      1.0  0.70643  0.49081  0.42646  1.0000
  H   H146      1.0  0.73530  0.50607  0.45477  1.0000
  H   H147      1.0  0.71605  0.48173  0.51836  1.0000
  C   C186      1.0  0.76681  0.45129  0.38185  1.0000
  H   H148      1.0  0.76487  0.44317  0.43944  1.0000
  C   C187      1.0  0.54746  0.29422  0.36001  1.0000
  C   C188      1.0  0.53363  0.27498  0.41589  1.0000
  C   C189      1.0  0.53073  0.25297  0.39366  1.0000
  C   C190      1.0  0.52207  0.27755  0.49720  1.0000
  H   H149      1.0  0.52494  0.29476  0.50749  1.0000
  H   H150      1.0  0.52819  0.27300  0.55701  1.0000
  H   H151      1.0  0.50362  0.26637  0.49190  1.0000
  C   C191      1.0  0.51585  0.23262  0.45089  1.0000
  H   H152      1.0  0.51393  0.21657  0.42631  1.0000
  H   H153      1.0  0.49865  0.23017  0.45451  1.0000
  H   H154      1.0  0.52296  0.23525  0.51830  1.0000
  C   C192      1.0  0.55344  0.31649  0.38211  1.0000
  H   H155      1.0  0.56150  0.32266  0.43979  1.0000
  C   C193      1.0  0.71054  0.25415  0.35985  1.0000
  C   C194      1.0  0.72977  0.25958  0.41582  1.0000
  C   C195      1.0  0.75178  0.27869  0.39364  1.0000
  C   C196      1.0  0.72718  0.24545  0.49718  1.0000
  H   H156      1.0  0.70997  0.23111  0.50740  1.0000
  H   H157      1.0  0.73170  0.25612  0.55697  1.0000
  H   H158      1.0  0.73837  0.23819  0.49200  1.0000
  C   C197      1.0  0.77212  0.28418  0.45097  1.0000
  H   H159      1.0  0.78817  0.29829  0.42642  1.0000
  H   H160      1.0  0.77457  0.26942  0.45466  1.0000
  H   H161      1.0  0.76947  0.28865  0.51835  1.0000
  C   C198      1.0  0.68827  0.23790  0.38195  1.0000
  H   H162      1.0  0.68209  0.23981  0.43960  1.0000
