data_image0
_chemical_formula_structural       C2HCN2C7H2N2O4CHC7H2N2O4CHC12HCH4N2C2H2C3H2CHC2H2C3H2CHC2HCN2C7H2N2O4CHC7H2N2O4CHC12HCH4N2C2H2C3H2CHC2H2C3H2CHC2HCN2C7H2N2O4CHC7H2N2O4CHC12HCH4N2C2H2C3H2CHC2H2C3H2CHC2HCN2C7H2N2O4CHC7H2N2O4CHC12HCH4N2C2H2C3H2CHC2H2C3H2CH
_chemical_formula_sum              "C176 H88 N32 O32"
_cell_length_a       39.6128
_cell_length_b       39.6128
_cell_length_c       15.0951
_cell_angle_alpha    90
_cell_angle_beta     90
_cell_angle_gamma    90

_space_group_name_H-M_alt    "P 1"
_space_group_IT_number       1

loop_
  _space_group_symop_operation_xyz
  'x, y, z'

loop_
  _atom_site_type_symbol
  _atom_site_label
  _atom_site_symmetry_multiplicity
  _atom_site_fract_x
  _atom_site_fract_y
  _atom_site_fract_z
  _atom_site_occupancy
  C   C1        1.0  0.48620  0.00729  0.32179  1.0000
  C   C2        1.0  0.42760  0.02142  0.28181  1.0000
  H   H1        1.0  0.41901  0.07302  0.25747  1.0000
  C   C3        1.0  0.04537  0.99297  0.35756  1.0000
  N   N1        1.0  0.39361  0.01732  0.28459  1.0000
  N   N2        1.0  0.10439  0.47331  0.36420  1.0000
  C   C4        1.0  0.00951  0.33502  0.28286  1.0000
  C   C5        1.0  0.98582  0.31657  0.23138  1.0000
  C   C6        1.0  0.98458  0.28100  0.23892  1.0000
  C   C7        1.0  0.00656  0.26245  0.29481  1.0000
  C   C8        1.0  0.00322  0.22679  0.30570  1.0000
  C   C9        1.0  0.99146  0.20469  0.23746  1.0000
  C   C10       1.0  0.98573  0.17009  0.25594  1.0000
  H   H2        1.0  0.97807  0.15466  0.20537  1.0000
  H   H3        1.0  0.96501  0.26909  0.20804  1.0000
  N   N3        1.0  0.98936  0.21581  0.14824  1.0000
  N   N4        1.0  0.46238  0.33368  0.17625  1.0000
  O   O1        1.0  0.96059  0.21091  0.11536  1.0000
  O   O2        1.0  0.96522  0.32484  0.09664  1.0000
  O   O3        1.0  0.01101  0.20168  0.09993  1.0000
  O   O4        1.0  0.43242  0.32902  0.20081  1.0000
  C   C11       1.0  0.00940  0.37059  0.28274  1.0000
  H   H4        1.0  0.49442  0.38281  0.23817  1.0000
  C   C12       1.0  0.15665  0.99758  0.31187  1.0000
  C   C13       1.0  0.17405  0.01365  0.24123  1.0000
  C   C14       1.0  0.20976  0.01402  0.24134  1.0000
  C   C15       1.0  0.22915  0.99963  0.31060  1.0000
  C   C16       1.0  0.26513  0.99948  0.30926  1.0000
  C   C17       1.0  0.28516  0.02587  0.27169  1.0000
  C   C18       1.0  0.32085  0.02336  0.27239  1.0000
  H   H5        1.0  0.33472  0.04292  0.24710  1.0000
  H   H6        1.0  0.22146  0.02299  0.18588  1.0000
  N   N5        1.0  0.27022  0.05645  0.24243  1.0000
  N   N6        1.0  0.15588  0.52743  0.16873  1.0000
  O   O5        1.0  0.27740  0.06285  0.16301  1.0000
  O   O6        1.0  0.16180  0.05838  0.15918  1.0000
  O   O7        1.0  0.27875  0.08116  0.28963  1.0000
  O   O8        1.0  0.16252  0.51242  0.09744  1.0000
  C   C19       1.0  0.12119  0.99595  0.31373  1.0000
  H   H7        1.0  0.10775  0.50849  0.26617  1.0000
  C   C20       1.0  0.45264  0.49686  0.30172  1.0000
  C   C21       1.0  0.43733  0.05529  0.27014  1.0000
  C   C22       1.0  0.46931  0.06651  0.29805  1.0000
  C   C23       1.0  0.49422  0.04241  0.32282  1.0000
  C   C24       1.0  0.44582  0.46193  0.29858  1.0000
  C   C25       1.0  0.02782  0.05184  0.34181  1.0000
  C   C26       1.0  0.01166  0.48259  0.34019  1.0000
  C   C27       1.0  0.00399  0.44744  0.33779  1.0000
  C   C28       1.0  0.02970  0.42319  0.35537  1.0000
  C   C29       1.0  0.06170  0.43430  0.38371  1.0000
  C   C30       1.0  0.07074  0.46846  0.37424  1.0000
  C   C31       1.0  0.47027  0.43805  0.32084  1.0000
  H   H8        1.0  0.08065  0.41679  0.39081  1.0000
  C   C32       1.0  0.05245  0.02781  0.36168  1.0000
  H   H9        1.0  0.46238  0.41365  0.32609  1.0000
  H   H10       1.0  0.42337  0.45283  0.27601  1.0000
  H   H11       1.0  0.07572  0.03651  0.37982  1.0000
  H   H12       1.0  0.03572  0.07625  0.33812  1.0000
  N   N7        1.0  0.47187  0.10060  0.30323  1.0000
  N   N8        1.0  0.02884  0.38964  0.33674  1.0000
  C   C33       1.0  0.03051  0.28159  0.34344  1.0000
  C   C34       1.0  0.03193  0.31693  0.33805  1.0000
  H   H13       1.0  0.04806  0.26996  0.38261  1.0000
  H   H14       1.0  0.04960  0.32925  0.37553  1.0000
  C   C35       1.0  0.49327  0.15599  0.33945  1.0000
  C   C36       1.0  0.50667  0.17735  0.40519  1.0000
  C   C37       1.0  0.51103  0.21192  0.38895  1.0000
  H   H15       1.0  0.51233  0.16815  0.46689  1.0000
  H   H16       1.0  0.51839  0.22635  0.44169  1.0000
  C   C38       1.0  0.48988  0.12127  0.35632  1.0000
  H   H17       1.0  0.49919  0.11157  0.41428  1.0000
  C   C39       1.0  0.21093  0.98419  0.38058  1.0000
  C   C40       1.0  0.17561  0.98287  0.38103  1.0000
  H   H18       1.0  0.22311  0.97465  0.43483  1.0000
  H   H19       1.0  0.16396  0.97182  0.43420  1.0000
  C   C41       1.0  0.33750  0.49562  0.31145  1.0000
  C   C42       1.0  0.31774  0.46969  0.34851  1.0000
  C   C43       1.0  0.28248  0.47160  0.34709  1.0000
  H   H20       1.0  0.32878  0.44883  0.37632  1.0000
  H   H21       1.0  0.26970  0.45111  0.37108  1.0000
  C   C44       1.0  0.37282  0.49325  0.31661  1.0000
  H   H22       1.0  0.38273  0.47442  0.35469  1.0000
  C   C45       1.0  0.48620  0.50729  0.32179  1.0000
  C   C46       1.0  0.42760  0.52142  0.28181  1.0000
  H   H23       1.0  0.41901  0.57302  0.25747  1.0000
  C   C47       1.0  0.04537  0.49297  0.35756  1.0000
  N   N9        1.0  0.39361  0.51732  0.28459  1.0000
  N   N10       1.0  0.10439  0.97331  0.36420  1.0000
  C   C48       1.0  0.00951  0.83502  0.28286  1.0000
  C   C49       1.0  0.98582  0.81657  0.23138  1.0000
  C   C50       1.0  0.98458  0.78100  0.23892  1.0000
  C   C51       1.0  0.00656  0.76245  0.29481  1.0000
  C   C52       1.0  0.00322  0.72679  0.30570  1.0000
  C   C53       1.0  0.99146  0.70469  0.23746  1.0000
  C   C54       1.0  0.98573  0.67009  0.25594  1.0000
  H   H24       1.0  0.97807  0.65466  0.20537  1.0000
  H   H25       1.0  0.96501  0.76909  0.20804  1.0000
  N   N11       1.0  0.98936  0.71581  0.14824  1.0000
  N   N12       1.0  0.46238  0.83368  0.17625  1.0000
  O   O9        1.0  0.96059  0.71091  0.11536  1.0000
  O   O10       1.0  0.96522  0.82484  0.09664  1.0000
  O   O11       1.0  0.01101  0.70168  0.09993  1.0000
  O   O12       1.0  0.43242  0.82902  0.20081  1.0000
  C   C55       1.0  0.00940  0.87059  0.28274  1.0000
  H   H26       1.0  0.49442  0.88281  0.23817  1.0000
  C   C56       1.0  0.15665  0.49758  0.31187  1.0000
  C   C57       1.0  0.17405  0.51365  0.24123  1.0000
  C   C58       1.0  0.20976  0.51402  0.24134  1.0000
  C   C59       1.0  0.22915  0.49963  0.31060  1.0000
  C   C60       1.0  0.26513  0.49948  0.30926  1.0000
  C   C61       1.0  0.28516  0.52587  0.27169  1.0000
  C   C62       1.0  0.32085  0.52336  0.27239  1.0000
  H   H27       1.0  0.33472  0.54292  0.24710  1.0000
  H   H28       1.0  0.22146  0.52299  0.18588  1.0000
  N   N13       1.0  0.27022  0.55645  0.24243  1.0000
  N   N14       1.0  0.15588  0.02743  0.16873  1.0000
  O   O13       1.0  0.27740  0.56285  0.16301  1.0000
  O   O14       1.0  0.16180  0.55838  0.15918  1.0000
  O   O15       1.0  0.27875  0.58117  0.28963  1.0000
  O   O16       1.0  0.16252  0.01242  0.09744  1.0000
  C   C63       1.0  0.12119  0.49595  0.31373  1.0000
  H   H29       1.0  0.10775  0.00849  0.26617  1.0000
  C   C64       1.0  0.45264  0.99686  0.30172  1.0000
  C   C65       1.0  0.43733  0.55529  0.27014  1.0000
  C   C66       1.0  0.46931  0.56651  0.29805  1.0000
  C   C67       1.0  0.49422  0.54241  0.32282  1.0000
  C   C68       1.0  0.44582  0.96194  0.29858  1.0000
  C   C69       1.0  0.02782  0.55184  0.34181  1.0000
  C   C70       1.0  0.01166  0.98259  0.34019  1.0000
  C   C71       1.0  0.00399  0.94744  0.33779  1.0000
  C   C72       1.0  0.02970  0.92319  0.35537  1.0000
  C   C73       1.0  0.06170  0.93430  0.38371  1.0000
  C   C74       1.0  0.07074  0.96846  0.37424  1.0000
  C   C75       1.0  0.47027  0.93804  0.32084  1.0000
  H   H30       1.0  0.08065  0.91679  0.39081  1.0000
  C   C76       1.0  0.05245  0.52781  0.36168  1.0000
  H   H31       1.0  0.46238  0.91366  0.32609  1.0000
  H   H32       1.0  0.42337  0.95283  0.27601  1.0000
  H   H33       1.0  0.07572  0.53651  0.37982  1.0000
  H   H34       1.0  0.03572  0.57625  0.33812  1.0000
  N   N15       1.0  0.47187  0.60060  0.30323  1.0000
  N   N16       1.0  0.02884  0.88964  0.33674  1.0000
  C   C77       1.0  0.03051  0.78158  0.34344  1.0000
  C   C78       1.0  0.03193  0.81692  0.33805  1.0000
  H   H35       1.0  0.04806  0.76996  0.38261  1.0000
  H   H36       1.0  0.04960  0.82925  0.37553  1.0000
  C   C79       1.0  0.49327  0.65599  0.33945  1.0000
  C   C80       1.0  0.50667  0.67735  0.40519  1.0000
  C   C81       1.0  0.51103  0.71193  0.38895  1.0000
  H   H37       1.0  0.51233  0.66815  0.46689  1.0000
  H   H38       1.0  0.51839  0.72635  0.44169  1.0000
  C   C82       1.0  0.48988  0.62127  0.35632  1.0000
  H   H39       1.0  0.49919  0.61157  0.41428  1.0000
  C   C83       1.0  0.21093  0.48419  0.38058  1.0000
  C   C84       1.0  0.17561  0.48287  0.38103  1.0000
  H   H40       1.0  0.22311  0.47465  0.43483  1.0000
  H   H41       1.0  0.16396  0.47181  0.43420  1.0000
  C   C85       1.0  0.33750  0.99562  0.31145  1.0000
  C   C86       1.0  0.31774  0.96969  0.34851  1.0000
  C   C87       1.0  0.28248  0.97160  0.34709  1.0000
  H   H42       1.0  0.32878  0.94883  0.37632  1.0000
  H   H43       1.0  0.26970  0.95111  0.37108  1.0000
  C   C88       1.0  0.37282  0.99325  0.31661  1.0000
  H   H44       1.0  0.38273  0.97442  0.35469  1.0000
  C   C89       1.0  0.98620  0.00729  0.32179  1.0000
  C   C90       1.0  0.92760  0.02142  0.28181  1.0000
  H   H45       1.0  0.91901  0.07302  0.25747  1.0000
  C   C91       1.0  0.54537  0.99297  0.35756  1.0000
  N   N17       1.0  0.89361  0.01732  0.28459  1.0000
  N   N18       1.0  0.60439  0.47331  0.36420  1.0000
  C   C92       1.0  0.50951  0.33502  0.28286  1.0000
  C   C93       1.0  0.48582  0.31657  0.23138  1.0000
  C   C94       1.0  0.48458  0.28100  0.23892  1.0000
  C   C95       1.0  0.50656  0.26245  0.29481  1.0000
  C   C96       1.0  0.50322  0.22679  0.30570  1.0000
  C   C97       1.0  0.49146  0.20469  0.23746  1.0000
  C   C98       1.0  0.48573  0.17009  0.25594  1.0000
  H   H46       1.0  0.47807  0.15466  0.20537  1.0000
  H   H47       1.0  0.46501  0.26909  0.20804  1.0000
  N   N19       1.0  0.48936  0.21581  0.14824  1.0000
  N   N20       1.0  0.96238  0.33368  0.17625  1.0000
  O   O17       1.0  0.46059  0.21091  0.11536  1.0000
  O   O18       1.0  0.46521  0.32484  0.09664  1.0000
  O   O19       1.0  0.51101  0.20168  0.09993  1.0000
  O   O20       1.0  0.93242  0.32902  0.20081  1.0000
  C   C99       1.0  0.50940  0.37059  0.28274  1.0000
  H   H48       1.0  0.99442  0.38281  0.23817  1.0000
  C   C100      1.0  0.65665  0.99758  0.31187  1.0000
  C   C101      1.0  0.67405  0.01365  0.24123  1.0000
  C   C102      1.0  0.70976  0.01402  0.24134  1.0000
  C   C103      1.0  0.72915  0.99963  0.31060  1.0000
  C   C104      1.0  0.76513  0.99948  0.30926  1.0000
  C   C105      1.0  0.78516  0.02587  0.27169  1.0000
  C   C106      1.0  0.82085  0.02336  0.27239  1.0000
  H   H49       1.0  0.83472  0.04292  0.24710  1.0000
  H   H50       1.0  0.72146  0.02299  0.18588  1.0000
  N   N21       1.0  0.77022  0.05645  0.24243  1.0000
  N   N22       1.0  0.65588  0.52743  0.16873  1.0000
  O   O21       1.0  0.77740  0.06285  0.16301  1.0000
  O   O22       1.0  0.66180  0.05838  0.15918  1.0000
  O   O23       1.0  0.77875  0.08116  0.28963  1.0000
  O   O24       1.0  0.66252  0.51242  0.09744  1.0000
  C   C107      1.0  0.62119  0.99595  0.31373  1.0000
  H   H51       1.0  0.60775  0.50849  0.26617  1.0000
  C   C108      1.0  0.95264  0.49686  0.30172  1.0000
  C   C109      1.0  0.93733  0.05529  0.27014  1.0000
  C   C110      1.0  0.96932  0.06651  0.29805  1.0000
  C   C111      1.0  0.99422  0.04241  0.32282  1.0000
  C   C112      1.0  0.94582  0.46193  0.29858  1.0000
  C   C113      1.0  0.52782  0.05184  0.34181  1.0000
  C   C114      1.0  0.51166  0.48259  0.34019  1.0000
  C   C115      1.0  0.50399  0.44744  0.33779  1.0000
  C   C116      1.0  0.52970  0.42319  0.35537  1.0000
  C   C117      1.0  0.56170  0.43430  0.38371  1.0000
  C   C118      1.0  0.57074  0.46846  0.37424  1.0000
  C   C119      1.0  0.97027  0.43805  0.32084  1.0000
  H   H52       1.0  0.58065  0.41679  0.39081  1.0000
  C   C120      1.0  0.55245  0.02781  0.36168  1.0000
  H   H53       1.0  0.96238  0.41365  0.32609  1.0000
  H   H54       1.0  0.92337  0.45283  0.27601  1.0000
  H   H55       1.0  0.57572  0.03651  0.37982  1.0000
  H   H56       1.0  0.53572  0.07625  0.33812  1.0000
  N   N23       1.0  0.97187  0.10060  0.30323  1.0000
  N   N24       1.0  0.52884  0.38964  0.33674  1.0000
  C   C121      1.0  0.53051  0.28159  0.34344  1.0000
  C   C122      1.0  0.53193  0.31693  0.33805  1.0000
  H   H57       1.0  0.54806  0.26996  0.38261  1.0000
  H   H58       1.0  0.54960  0.32925  0.37553  1.0000
  C   C123      1.0  0.99327  0.15599  0.33945  1.0000
  C   C124      1.0  0.00667  0.17735  0.40519  1.0000
  C   C125      1.0  0.01103  0.21192  0.38895  1.0000
  H   H59       1.0  0.01232  0.16815  0.46689  1.0000
  H   H60       1.0  0.01839  0.22635  0.44169  1.0000
  C   C126      1.0  0.98988  0.12127  0.35632  1.0000
  H   H61       1.0  0.99919  0.11157  0.41428  1.0000
  C   C127      1.0  0.71093  0.98419  0.38058  1.0000
  C   C128      1.0  0.67561  0.98287  0.38103  1.0000
  H   H62       1.0  0.72311  0.97465  0.43483  1.0000
  H   H63       1.0  0.66396  0.97182  0.43420  1.0000
  C   C129      1.0  0.83751  0.49562  0.31145  1.0000
  C   C130      1.0  0.81774  0.46969  0.34851  1.0000
  C   C131      1.0  0.78248  0.47160  0.34709  1.0000
  H   H64       1.0  0.82878  0.44883  0.37632  1.0000
  H   H65       1.0  0.76970  0.45111  0.37108  1.0000
  C   C132      1.0  0.87282  0.49325  0.31661  1.0000
  H   H66       1.0  0.88273  0.47442  0.35469  1.0000
  C   C133      1.0  0.98620  0.50729  0.32179  1.0000
  C   C134      1.0  0.92760  0.52142  0.28181  1.0000
  H   H67       1.0  0.91901  0.57302  0.25747  1.0000
  C   C135      1.0  0.54537  0.49297  0.35756  1.0000
  N   N25       1.0  0.89361  0.51732  0.28459  1.0000
  N   N26       1.0  0.60439  0.97331  0.36420  1.0000
  C   C136      1.0  0.50951  0.83502  0.28286  1.0000
  C   C137      1.0  0.48582  0.81657  0.23138  1.0000
  C   C138      1.0  0.48458  0.78100  0.23892  1.0000
  C   C139      1.0  0.50656  0.76245  0.29481  1.0000
  C   C140      1.0  0.50322  0.72679  0.30570  1.0000
  C   C141      1.0  0.49146  0.70469  0.23746  1.0000
  C   C142      1.0  0.48573  0.67009  0.25594  1.0000
  H   H68       1.0  0.47807  0.65466  0.20537  1.0000
  H   H69       1.0  0.46501  0.76909  0.20804  1.0000
  N   N27       1.0  0.48936  0.71581  0.14824  1.0000
  N   N28       1.0  0.96238  0.83368  0.17625  1.0000
  O   O25       1.0  0.46059  0.71091  0.11536  1.0000
  O   O26       1.0  0.46521  0.82484  0.09664  1.0000
  O   O27       1.0  0.51101  0.70168  0.09993  1.0000
  O   O28       1.0  0.93242  0.82902  0.20081  1.0000
  C   C143      1.0  0.50940  0.87059  0.28274  1.0000
  H   H70       1.0  0.99442  0.88281  0.23817  1.0000
  C   C144      1.0  0.65665  0.49758  0.31187  1.0000
  C   C145      1.0  0.67405  0.51365  0.24123  1.0000
  C   C146      1.0  0.70976  0.51402  0.24134  1.0000
  C   C147      1.0  0.72915  0.49963  0.31060  1.0000
  C   C148      1.0  0.76513  0.49948  0.30926  1.0000
  C   C149      1.0  0.78516  0.52587  0.27169  1.0000
  C   C150      1.0  0.82085  0.52336  0.27239  1.0000
  H   H71       1.0  0.83472  0.54292  0.24710  1.0000
  H   H72       1.0  0.72146  0.52299  0.18588  1.0000
  N   N29       1.0  0.77022  0.55645  0.24243  1.0000
  N   N30       1.0  0.65588  0.02743  0.16873  1.0000
  O   O29       1.0  0.77740  0.56285  0.16301  1.0000
  O   O30       1.0  0.66180  0.55838  0.15918  1.0000
  O   O31       1.0  0.77875  0.58117  0.28963  1.0000
  O   O32       1.0  0.66252  0.01242  0.09744  1.0000
  C   C151      1.0  0.62119  0.49595  0.31373  1.0000
  H   H73       1.0  0.60775  0.00849  0.26617  1.0000
  C   C152      1.0  0.95264  0.99686  0.30172  1.0000
  C   C153      1.0  0.93733  0.55529  0.27014  1.0000
  C   C154      1.0  0.96932  0.56651  0.29805  1.0000
  C   C155      1.0  0.99422  0.54241  0.32282  1.0000
  C   C156      1.0  0.94582  0.96194  0.29858  1.0000
  C   C157      1.0  0.52782  0.55184  0.34181  1.0000
  C   C158      1.0  0.51166  0.98259  0.34019  1.0000
  C   C159      1.0  0.50399  0.94744  0.33779  1.0000
  C   C160      1.0  0.52970  0.92319  0.35537  1.0000
  C   C161      1.0  0.56170  0.93430  0.38371  1.0000
  C   C162      1.0  0.57074  0.96846  0.37424  1.0000
  C   C163      1.0  0.97027  0.93804  0.32084  1.0000
  H   H74       1.0  0.58065  0.91679  0.39081  1.0000
  C   C164      1.0  0.55245  0.52781  0.36168  1.0000
  H   H75       1.0  0.96238  0.91366  0.32609  1.0000
  H   H76       1.0  0.92337  0.95283  0.27601  1.0000
  H   H77       1.0  0.57572  0.53651  0.37982  1.0000
  H   H78       1.0  0.53572  0.57625  0.33812  1.0000
  N   N31       1.0  0.97187  0.60060  0.30323  1.0000
  N   N32       1.0  0.52884  0.88964  0.33674  1.0000
  C   C165      1.0  0.53051  0.78158  0.34344  1.0000
  C   C166      1.0  0.53193  0.81692  0.33805  1.0000
  H   H79       1.0  0.54806  0.76996  0.38261  1.0000
  H   H80       1.0  0.54960  0.82925  0.37553  1.0000
  C   C167      1.0  0.99327  0.65599  0.33945  1.0000
  C   C168      1.0  0.00667  0.67735  0.40519  1.0000
  C   C169      1.0  0.01103  0.71193  0.38895  1.0000
  H   H81       1.0  0.01232  0.66815  0.46689  1.0000
  H   H82       1.0  0.01839  0.72635  0.44169  1.0000
  C   C170      1.0  0.98988  0.62127  0.35632  1.0000
  H   H83       1.0  0.99919  0.61157  0.41428  1.0000
  C   C171      1.0  0.71093  0.48419  0.38058  1.0000
  C   C172      1.0  0.67561  0.48287  0.38103  1.0000
  H   H84       1.0  0.72311  0.47465  0.43483  1.0000
  H   H85       1.0  0.66396  0.47181  0.43420  1.0000
  C   C173      1.0  0.83751  0.99562  0.31145  1.0000
  C   C174      1.0  0.81774  0.96969  0.34851  1.0000
  C   C175      1.0  0.78248  0.97160  0.34709  1.0000
  H   H86       1.0  0.82878  0.94883  0.37632  1.0000
  H   H87       1.0  0.76970  0.95111  0.37108  1.0000
  C   C176      1.0  0.87282  0.99325  0.31661  1.0000
  H   H88       1.0  0.88273  0.97442  0.35469  1.0000
