data_image0
_chemical_formula_structural       C3HNOC2NO2CHCNCNCNCNC3HNOCHC2NO2C3HNO2C3HNO2C3HNO2C3HNO2C3HNO2C3HNO3C3HNO2C3HNO2C3HNO2C3HNO2C3HNO2CHC3HNO2C3HNO2C2NO2C3HNO2C3HNO2CNCNCNCNCNCNCNCNCNCNCNCNCNCNCNCNCNCNCNCNCNCNCNCNCNCNCNCNCNCNCNCNC3HNO2C3HNO2C3HNO2C3HNO2C3HNO2C3HNO3C3HNO2C3HNO2C3HNO2C3HNO2C3HNO2C2NO2C3HNO2C3HNO2CHC3HNO2C3HNO2
_chemical_formula_sum              "C144 H36 N72 O72"
_cell_length_a       39.2981
_cell_length_b       39.2981
_cell_length_c       14.7828
_cell_angle_alpha    90
_cell_angle_beta     90
_cell_angle_gamma    120

_space_group_name_H-M_alt    "P 1"
_space_group_IT_number       1

loop_
  _space_group_symop_operation_xyz
  'x, y, z'

loop_
  _atom_site_type_symbol
  _atom_site_label
  _atom_site_symmetry_multiplicity
  _atom_site_fract_x
  _atom_site_fract_y
  _atom_site_fract_z
  _atom_site_occupancy
  C   C1        1.0  0.15126  0.62280  0.34653  1.0000
  C   C2        1.0  0.15124  0.60452  0.26387  1.0000
  C   C3        1.0  0.15144  0.56859  0.26597  1.0000
  H   H1        1.0  0.15013  0.55483  0.20607  1.0000
  N   N1        1.0  0.14967  0.62183  0.18106  1.0000
  O   O1        1.0  0.11908  0.59949  0.13724  1.0000
  C   C4        1.0  0.05927  0.41420  0.34551  1.0000
  C   C5        1.0  0.03747  0.40368  0.26369  1.0000
  N   N2        1.0  0.05787  0.41662  0.18047  1.0000
  O   O2        1.0  0.05045  0.38813  0.12958  1.0000
  O   O3        1.0  0.04928  0.43937  0.13960  1.0000
  C   C6        1.0  0.03843  0.65666  0.26660  1.0000
  H   H2        1.0  0.05364  0.66208  0.20701  1.0000
  C   C7        1.0  0.09965  0.44359  0.34656  1.0000
  N   N3        1.0  0.13031  0.43644  0.34671  1.0000
  C   C8        1.0  0.14506  0.51190  0.34693  1.0000
  N   N4        1.0  0.10767  0.48141  0.34666  1.0000
  C   C9        1.0  0.09972  0.67810  0.34837  1.0000
  N   N5        1.0  0.13038  0.71592  0.34818  1.0000
  C   C10       1.0  0.14515  0.65521  0.34815  1.0000
  N   N6        1.0  0.10775  0.64830  0.34835  1.0000
  C   C11       1.0  0.15118  0.55043  0.34859  1.0000
  C   C12       1.0  0.15092  0.56857  0.43125  1.0000
  C   C13       1.0  0.15120  0.60474  0.42915  1.0000
  H   H3        1.0  0.14970  0.61710  0.48904  1.0000
  N   N7        1.0  0.14909  0.54957  0.51404  1.0000
  O   O4        1.0  0.11839  0.54131  0.55740  1.0000
  C   C14       1.0  0.03838  0.40366  0.42819  1.0000
  H   H4        1.0  0.05358  0.41340  0.48780  1.0000
  C   C15       1.0  0.05934  0.66709  0.34925  1.0000
  C   C16       1.0  0.03755  0.65591  0.43112  1.0000
  N   N8        1.0  0.05797  0.66346  0.51433  1.0000
  O   O5        1.0  0.05057  0.68459  0.56508  1.0000
  O   O6        1.0  0.04939  0.63216  0.55541  1.0000
  C   C17       1.0  0.27436  0.46107  0.34637  1.0000
  C   C18       1.0  0.25592  0.46137  0.26409  1.0000
  C   C19       1.0  0.21965  0.46110  0.26623  1.0000
  H   H5        1.0  0.20724  0.46241  0.20628  1.0000
  N   N9        1.0  0.27481  0.46316  0.18120  1.0000
  O   O7        1.0  0.25368  0.43395  0.13220  1.0000
  O   O8        1.0  0.28315  0.49390  0.13796  1.0000
  C   C20       1.0  0.57568  0.83530  0.34636  1.0000
  C   C21       1.0  0.57535  0.81652  0.26411  1.0000
  C   C22       1.0  0.57562  0.78052  0.26629  1.0000
  H   H6        1.0  0.57431  0.76680  0.20635  1.0000
  N   N10       1.0  0.57353  0.83361  0.18120  1.0000
  O   O9        1.0  0.60272  0.84166  0.13215  1.0000
  O   O10       1.0  0.54277  0.81119  0.13804  1.0000
  C   C23       1.0  0.20139  0.76232  0.34647  1.0000
  C   C24       1.0  0.22016  0.78074  0.26419  1.0000
  C   C25       1.0  0.25615  0.81702  0.26632  1.0000
  H   H7        1.0  0.26989  0.82940  0.20637  1.0000
  N   N11       1.0  0.20307  0.76183  0.18129  1.0000
  O   O11       1.0  0.19500  0.78295  0.13224  1.0000
  O   O12       1.0  0.22548  0.75349  0.13813  1.0000
  C   C26       1.0  0.75987  0.57802  0.34644  1.0000
  C   C27       1.0  0.77830  0.57769  0.26416  1.0000
  C   C28       1.0  0.81459  0.57800  0.26630  1.0000
  H   H8        1.0  0.82697  0.57662  0.20636  1.0000
  N   N12       1.0  0.75939  0.57585  0.18127  1.0000
  O   O13       1.0  0.78049  0.60504  0.13220  1.0000
  O   O14       1.0  0.75106  0.54509  0.13810  1.0000
  C   C29       1.0  0.45861  0.20381  0.34636  1.0000
  C   C30       1.0  0.45894  0.22257  0.26408  1.0000
  C   C31       1.0  0.45866  0.25856  0.26624  1.0000
  H   H9        1.0  0.45998  0.27228  0.20629  1.0000
  N   N13       1.0  0.46075  0.20547  0.18119  1.0000
  O   O15       1.0  0.43156  0.19741  0.13215  1.0000
  O   O16       1.0  0.49150  0.22789  0.13800  1.0000
  C   C32       1.0  0.83284  0.27676  0.34636  1.0000
  C   C33       1.0  0.81407  0.25831  0.26410  1.0000
  C   C34       1.0  0.77807  0.22204  0.26627  1.0000
  H   H10       1.0  0.76436  0.20962  0.20632  1.0000
  N   N14       1.0  0.83116  0.27721  0.18120  1.0000
  O   O17       1.0  0.83922  0.25608  0.13216  1.0000
  O   O18       1.0  0.80874  0.28555  0.13802  1.0000
  O   O19       1.0  0.17905  0.63010  0.13251  1.0000
  C   C35       1.0  0.41387  0.55048  0.34665  1.0000
  C   C36       1.0  0.43215  0.56873  0.26398  1.0000
  C   C37       1.0  0.46807  0.60488  0.26603  1.0000
  H   H11       1.0  0.48184  0.61729  0.20611  1.0000
  N   N15       1.0  0.41485  0.54984  0.18117  1.0000
  O   O20       1.0  0.40657  0.57093  0.13257  1.0000
  O   O21       1.0  0.43719  0.54159  0.13740  1.0000
  C   C38       1.0  0.48623  0.88536  0.34661  1.0000
  C   C39       1.0  0.46796  0.88538  0.26394  1.0000
  C   C40       1.0  0.43181  0.88514  0.26602  1.0000
  H   H12       1.0  0.41940  0.88650  0.20610  1.0000
  N   N16       1.0  0.48685  0.88697  0.18113  1.0000
  O   O22       1.0  0.46576  0.85760  0.13254  1.0000
  O   O23       1.0  0.49510  0.91756  0.13736  1.0000
  C   C41       1.0  0.88295  0.41629  0.34662  1.0000
  C   C42       1.0  0.88297  0.43456  0.26395  1.0000
  C   C43       1.0  0.88276  0.47049  0.26603  1.0000
  H   H13       1.0  0.88409  0.48425  0.20613  1.0000
  N   N17       1.0  0.88455  0.41726  0.18114  1.0000
  O   O24       1.0  0.85518  0.40898  0.13257  1.0000
  O   O25       1.0  0.91514  0.43960  0.13734  1.0000
  C   C44       1.0  0.62035  0.48862  0.34653  1.0000
  C   C45       1.0  0.60208  0.47036  0.26387  1.0000
  C   C46       1.0  0.56615  0.43423  0.26597  1.0000
  H   H14       1.0  0.55239  0.42178  0.20606  1.0000
  N   N18       1.0  0.61938  0.48924  0.18105  1.0000
  O   O26       1.0  0.62765  0.46813  0.13251  1.0000
  O   O27       1.0  0.59705  0.49748  0.13723  1.0000
  C   C47       1.0  0.54801  0.15368  0.34657  1.0000
  C   C48       1.0  0.56628  0.15368  0.26391  1.0000
  C   C49       1.0  0.60243  0.15391  0.26599  1.0000
  H   H15       1.0  0.61485  0.15257  0.20607  1.0000
  N   N19       1.0  0.54739  0.15209  0.18110  1.0000
  O   O28       1.0  0.56848  0.18147  0.13252  1.0000
  O   O29       1.0  0.53915  0.12150  0.13731  1.0000
  C   C50       1.0  0.99577  0.38243  0.26656  1.0000
  H   H16       1.0  0.98055  0.37690  0.20696  1.0000
  C   C51       1.0  0.62247  0.66699  0.34555  1.0000
  C   C52       1.0  0.63297  0.65571  0.26369  1.0000
  C   C53       1.0  0.65421  0.63525  0.26661  1.0000
  H   H17       1.0  0.65973  0.62553  0.20704  1.0000
  N   N20       1.0  0.62002  0.66316  0.18048  1.0000
  O   O30       1.0  0.64851  0.68422  0.12958  1.0000
  O   O31       1.0  0.59727  0.63182  0.13962  1.0000
  C   C54       1.0  0.36969  0.97740  0.34569  1.0000
  C   C55       1.0  0.38103  0.99919  0.26383  1.0000
  C   C56       1.0  0.40143  0.04089  0.26672  1.0000
  H   H18       1.0  0.41121  0.05611  0.20713  1.0000
  N   N21       1.0  0.37364  0.97880  0.18061  1.0000
  O   O32       1.0  0.35258  0.98620  0.12961  1.0000
  O   O33       1.0  0.40501  0.98742  0.13985  1.0000
  C   C57       1.0  0.97497  0.62485  0.34566  1.0000
  C   C58       1.0  0.99673  0.63534  0.26377  1.0000
  N   N22       1.0  0.97632  0.62234  0.18057  1.0000
  O   O34       1.0  0.98370  0.65080  0.12961  1.0000
  O   O35       1.0  0.98496  0.59961  0.13974  1.0000
  C   C59       1.0  0.41176  0.37205  0.34552  1.0000
  C   C60       1.0  0.40124  0.38332  0.26369  1.0000
  C   C61       1.0  0.37999  0.40378  0.26653  1.0000
  H   H19       1.0  0.37445  0.41346  0.20693  1.0000
  N   N23       1.0  0.41415  0.37583  0.18047  1.0000
  O   O36       1.0  0.38565  0.35476  0.12961  1.0000
  O   O37       1.0  0.43691  0.40716  0.13955  1.0000
  C   C62       1.0  0.66457  0.06165  0.34551  1.0000
  C   C63       1.0  0.65335  0.03989  0.26363  1.0000
  C   C64       1.0  0.63289  0.99819  0.26651  1.0000
  H   H20       1.0  0.62322  0.98296  0.20692  1.0000
  N   N24       1.0  0.66085  0.06031  0.18043  1.0000
  O   O38       1.0  0.68195  0.05289  0.12961  1.0000
  O   O39       1.0  0.62953  0.05171  0.13946  1.0000
  C   C65       1.0  0.16834  0.46680  0.34702  1.0000
  N   N25       1.0  0.17522  0.50438  0.34749  1.0000
  C   C66       1.0  0.59310  0.67802  0.34657  1.0000
  N   N26       1.0  0.60028  0.71583  0.34674  1.0000
  C   C67       1.0  0.56994  0.72354  0.34704  1.0000
  N   N27       1.0  0.53235  0.69286  0.34751  1.0000
  C   C68       1.0  0.52480  0.65516  0.34694  1.0000
  N   N28       1.0  0.55527  0.64823  0.34666  1.0000
  C   C69       1.0  0.35866  0.93701  0.34656  1.0000
  N   N29       1.0  0.32084  0.90637  0.34679  1.0000
  C   C70       1.0  0.31314  0.86833  0.34705  1.0000
  N   N30       1.0  0.34381  0.86142  0.34747  1.0000
  C   C71       1.0  0.38151  0.89155  0.34686  1.0000
  N   N31       1.0  0.38845  0.92896  0.34664  1.0000
  C   C72       1.0  0.93458  0.59547  0.34655  1.0000
  N   N32       1.0  0.90393  0.60265  0.34676  1.0000
  C   C73       1.0  0.86590  0.57231  0.34702  1.0000
  N   N33       1.0  0.85899  0.53472  0.34749  1.0000
  C   C74       1.0  0.88913  0.52717  0.34692  1.0000
  N   N34       1.0  0.92653  0.55764  0.34666  1.0000
  C   C75       1.0  0.44114  0.36105  0.34657  1.0000
  N   N35       1.0  0.43398  0.32323  0.34673  1.0000
  C   C76       1.0  0.46433  0.31555  0.34702  1.0000
  N   N36       1.0  0.50191  0.34624  0.34748  1.0000
  C   C77       1.0  0.50945  0.38393  0.34692  1.0000
  N   N37       1.0  0.47897  0.39084  0.34666  1.0000
  C   C78       1.0  0.67558  0.10204  0.34654  1.0000
  N   N38       1.0  0.71340  0.13269  0.34671  1.0000
  C   C79       1.0  0.72109  0.17072  0.34701  1.0000
  N   N39       1.0  0.69041  0.17763  0.34748  1.0000
  C   C80       1.0  0.65271  0.14748  0.34690  1.0000
  N   N40       1.0  0.64579  0.11008  0.34664  1.0000
  C   C81       1.0  0.44117  0.10214  0.34841  1.0000
  N   N41       1.0  0.43401  0.13280  0.34818  1.0000
  C   C82       1.0  0.46437  0.17083  0.34790  1.0000
  N   N42       1.0  0.50195  0.17773  0.34753  1.0000
  C   C83       1.0  0.50948  0.14757  0.34817  1.0000
  N   N43       1.0  0.47900  0.11017  0.34841  1.0000
  C   C84       1.0  0.67565  0.59547  0.34841  1.0000
  N   N44       1.0  0.71347  0.60262  0.34820  1.0000
  C   C85       1.0  0.72114  0.57227  0.34795  1.0000
  N   N45       1.0  0.69046  0.53469  0.34755  1.0000
  C   C86       1.0  0.65277  0.52715  0.34815  1.0000
  N   N46       1.0  0.64585  0.55764  0.34839  1.0000
  C   C87       1.0  0.93449  0.36099  0.34834  1.0000
  N   N47       1.0  0.90384  0.32317  0.34809  1.0000
  C   C88       1.0  0.86581  0.31549  0.34791  1.0000
  N   N48       1.0  0.85890  0.34617  0.34759  1.0000
  C   C89       1.0  0.88906  0.38387  0.34822  1.0000
  N   N49       1.0  0.92646  0.39078  0.34839  1.0000
  C   C90       1.0  0.59306  0.93694  0.34834  1.0000
  N   N50       1.0  0.60024  0.90629  0.34810  1.0000
  C   C91       1.0  0.56990  0.86826  0.34791  1.0000
  N   N51       1.0  0.53231  0.86134  0.34758  1.0000
  C   C92       1.0  0.52475  0.89148  0.34820  1.0000
  N   N52       1.0  0.55523  0.92889  0.34839  1.0000
  C   C93       1.0  0.35859  0.44364  0.34839  1.0000
  N   N53       1.0  0.32077  0.43648  0.34811  1.0000
  C   C94       1.0  0.31309  0.46682  0.34792  1.0000
  N   N54       1.0  0.34377  0.50441  0.34762  1.0000
  C   C95       1.0  0.38146  0.51195  0.34826  1.0000
  N   N55       1.0  0.38838  0.48147  0.34843  1.0000
  C   C96       1.0  0.16841  0.72359  0.34797  1.0000
  N   N56       1.0  0.17530  0.69291  0.34758  1.0000
  C   C97       1.0  0.20132  0.46106  0.34855  1.0000
  C   C98       1.0  0.22018  0.46159  0.43083  1.0000
  C   C99       1.0  0.25618  0.46131  0.42870  1.0000
  H   H21       1.0  0.26999  0.46282  0.48863  1.0000
  N   N57       1.0  0.20317  0.46356  0.51370  1.0000
  O   O40       1.0  0.19515  0.43447  0.56305  1.0000
  O   O41       1.0  0.22562  0.49441  0.55656  1.0000
  C   C100      1.0  0.57572  0.76227  0.34862  1.0000
  C   C101      1.0  0.57514  0.78060  0.43085  1.0000
  C   C102      1.0  0.57539  0.81686  0.42869  1.0000
  H   H22       1.0  0.57389  0.82918  0.48862  1.0000
  N   N58       1.0  0.57315  0.76161  0.51375  1.0000
  O   O42       1.0  0.60221  0.78270  0.56316  1.0000
  O   O43       1.0  0.54228  0.75319  0.55653  1.0000
  C   C103      1.0  0.27441  0.83536  0.34865  1.0000
  C   C104      1.0  0.25607  0.81652  0.43092  1.0000
  C   C105      1.0  0.21980  0.78052  0.42879  1.0000
  H   H23       1.0  0.20747  0.76673  0.48872  1.0000
  N   N59       1.0  0.27504  0.83355  0.51379  1.0000
  O   O44       1.0  0.25395  0.84157  0.56310  1.0000
  O   O45       1.0  0.28344  0.81111  0.55671  1.0000
  C   C106      1.0  0.83294  0.57808  0.34864  1.0000
  C   C107      1.0  0.81407  0.57755  0.43090  1.0000
  C   C108      1.0  0.77807  0.57783  0.42877  1.0000
  H   H24       1.0  0.76426  0.57633  0.48870  1.0000
  N   N60       1.0  0.83109  0.57559  0.51377  1.0000
  O   O46       1.0  0.83910  0.60468  0.56311  1.0000
  O   O47       1.0  0.80865  0.54475  0.55663  1.0000
  C   C109      1.0  0.45858  0.27683  0.34856  1.0000
  C   C110      1.0  0.45912  0.25849  0.43082  1.0000
  C   C111      1.0  0.45884  0.22221  0.42869  1.0000
  H   H25       1.0  0.46035  0.20991  0.48862  1.0000
  N   N61       1.0  0.46109  0.27747  0.51371  1.0000
  O   O48       1.0  0.43200  0.25639  0.56306  1.0000
  O   O49       1.0  0.49194  0.28587  0.55655  1.0000
  C   C112      1.0  0.75982  0.20369  0.34859  1.0000
  C   C113      1.0  0.77814  0.22259  0.43084  1.0000
  C   C114      1.0  0.81440  0.25860  0.42869  1.0000
  H   H26       1.0  0.82671  0.27242  0.48861  1.0000
  N   N62       1.0  0.75916  0.20559  0.51373  1.0000
  O   O50       1.0  0.78024  0.19762  0.56313  1.0000
  O   O51       1.0  0.75073  0.22804  0.55651  1.0000
  O   O52       1.0  0.17834  0.57058  0.56303  1.0000
  C   C115      1.0  0.48626  0.62277  0.34862  1.0000
  C   C116      1.0  0.46812  0.60439  0.43130  1.0000
  C   C117      1.0  0.43194  0.56851  0.42924  1.0000
  H   H27       1.0  0.41960  0.55465  0.48913  1.0000
  N   N63       1.0  0.48714  0.62155  0.51408  1.0000
  O   O53       1.0  0.46616  0.62982  0.56309  1.0000
  O   O54       1.0  0.49539  0.59911  0.55742  1.0000
  C   C118      1.0  0.41390  0.88541  0.34862  1.0000
  C   C119      1.0  0.43231  0.88569  0.43127  1.0000
  C   C120      1.0  0.46822  0.88544  0.42920  1.0000
  H   H28       1.0  0.48205  0.88691  0.48909  1.0000
  N   N64       1.0  0.41514  0.88753  0.51405  1.0000
  O   O55       1.0  0.40691  0.85830  0.56309  1.0000
  O   O56       1.0  0.43757  0.91825  0.55736  1.0000
  C   C121      1.0  0.88299  0.48863  0.34865  1.0000
  C   C122      1.0  0.88324  0.47049  0.43132  1.0000
  C   C123      1.0  0.88300  0.43434  0.42923  1.0000
  H   H29       1.0  0.88446  0.42197  0.48912  1.0000
  N   N65       1.0  0.88506  0.48950  0.51410  1.0000
  O   O57       1.0  0.85581  0.46848  0.56308  1.0000
  O   O58       1.0  0.91576  0.49778  0.55747  1.0000
  C   C124      1.0  0.54798  0.41634  0.34858  1.0000
  C   C125      1.0  0.56612  0.43473  0.43124  1.0000
  C   C126      1.0  0.60229  0.47063  0.42915  1.0000
  H   H30       1.0  0.61464  0.48448  0.48904  1.0000
  N   N66       1.0  0.54712  0.41757  0.51404  1.0000
  O   O59       1.0  0.56812  0.40933  0.56303  1.0000
  O   O60       1.0  0.53886  0.44001  0.55739  1.0000
  C   C127      1.0  0.62031  0.15361  0.34858  1.0000
  C   C128      1.0  0.60192  0.15335  0.43125  1.0000
  C   C129      1.0  0.56603  0.15364  0.42917  1.0000
  H   H31       1.0  0.55217  0.15212  0.48906  1.0000
  N   N67       1.0  0.61908  0.15149  0.51404  1.0000
  O   O61       1.0  0.62733  0.18074  0.56306  1.0000
  O   O62       1.0  0.59663  0.12079  0.55736  1.0000
  C   C130      1.0  0.97487  0.37200  0.34921  1.0000
  C   C131      1.0  0.99668  0.38325  0.43105  1.0000
  N   N68       1.0  0.97628  0.37574  0.51429  1.0000
  O   O63       1.0  0.98369  0.35464  0.56509  1.0000
  O   O64       1.0  0.98488  0.40707  0.55527  1.0000
  C   C132      1.0  0.66465  0.62485  0.34935  1.0000
  C   C133      1.0  0.65346  0.63544  0.43120  1.0000
  C   C134      1.0  0.63301  0.65670  0.42830  1.0000
  H   H32       1.0  0.62333  0.66226  0.48787  1.0000
  N   N69       1.0  0.66102  0.62260  0.51444  1.0000
  O   O65       1.0  0.68215  0.65116  0.56512  1.0000
  O   O66       1.0  0.62973  0.59990  0.55555  1.0000
  C   C135      1.0  0.41179  0.06176  0.34942  1.0000
  C   C136      1.0  0.40116  0.03997  0.43125  1.0000
  C   C137      1.0  0.37991  0.99827  0.42838  1.0000
  H   H33       1.0  0.37433  0.98304  0.48797  1.0000
  N   N70       1.0  0.41396  0.06038  0.51449  1.0000
  O   O67       1.0  0.38540  0.05295  0.56512  1.0000
  O   O68       1.0  0.43666  0.05181  0.55566  1.0000
  C   C138      1.0  0.99585  0.63548  0.42832  1.0000
  H   H34       1.0  0.98065  0.62577  0.48793  1.0000
  C   C139      1.0  0.36961  0.41428  0.34919  1.0000
  C   C140      1.0  0.38083  0.40372  0.43106  1.0000
  C   C141      1.0  0.40124  0.38242  0.42819  1.0000
  H   H35       1.0  0.41097  0.37695  0.48780  1.0000
  N   N71       1.0  0.37333  0.41662  0.51430  1.0000
  O   O69       1.0  0.35222  0.38810  0.56509  1.0000
  O   O70       1.0  0.40466  0.43933  0.55530  1.0000
  C   C142      1.0  0.62242  0.97733  0.34920  1.0000
  C   C143      1.0  0.63297  0.99909  0.43110  1.0000
  C   C144      1.0  0.65422  0.04080  0.42823  1.0000
  H   H36       1.0  0.65975  0.05603  0.48782  1.0000
  N   N72       1.0  0.62010  0.97868  0.51432  1.0000
  O   O71       1.0  0.64863  0.98611  0.56507  1.0000
  O   O72       1.0  0.59738  0.98727  0.55538  1.0000
