data_image0
_chemical_formula_structural       CHNC9H6NC2H2C8H6NC2H2C8H6NC2H2C8H6NC2H2C8H6NC2H2C8H6NC2H2C5H3NC5NH3NC5NH3N2C5H3N2C5H3N2C5H3N2C5H3N2C5H3N2C5H3NC10H4CNCNHCHCHC10H4CNCNHCHCHC10H4CNCNHCHCHC10H4CNCNHCHCHC10H4CNCNHCHCHC10H4CNCNHCHCHNC3H2N2C5H3N2C5H3NC5NH3NC5NH3NC5NH3NC5NH3NC5NH3NC5NH3N
_chemical_formula_sum              "C234 H144 N54"
_cell_length_a       91.0903
_cell_length_b       91.0903
_cell_length_c       14.99
_cell_angle_alpha    90
_cell_angle_beta     90
_cell_angle_gamma    120

_space_group_name_H-M_alt    "P 1"
_space_group_IT_number       1

loop_
  _space_group_symop_operation_xyz
  'x, y, z'

loop_
  _atom_site_type_symbol
  _atom_site_label
  _atom_site_symmetry_multiplicity
  _atom_site_fract_x
  _atom_site_fract_y
  _atom_site_fract_z
  _atom_site_occupancy
  C   C1        1.0  0.00949  0.50462  0.33931  1.0000
  H   H1        1.0  0.01269  0.49684  0.46873  1.0000
  N   N1        1.0  0.01858  0.51436  0.26879  1.0000
  C   C2        1.0  0.01873  0.50398  0.41377  1.0000
  C   C3        1.0  0.12660  0.56671  0.33258  1.0000
  C   C4        1.0  0.09058  0.55206  0.31442  1.0000
  C   C5        1.0  0.10152  0.56978  0.30849  1.0000
  C   C6        1.0  0.11916  0.57695  0.31783  1.0000
  C   C7        1.0  0.17704  0.62783  0.32462  1.0000
  C   C8        1.0  0.18806  0.64539  0.31315  1.0000
  C   C9        1.0  0.17541  0.53323  0.37829  1.0000
  C   C10       1.0  0.16739  0.54300  0.37072  1.0000
  H   H2        1.0  0.09675  0.57768  0.29682  1.0000
  H   H3        1.0  0.12651  0.58983  0.31214  1.0000
  H   H4        1.0  0.16433  0.62352  0.33008  1.0000
  H   H5        1.0  0.18306  0.65325  0.30980  1.0000
  H   H6        1.0  0.16816  0.52051  0.39098  1.0000
  H   H7        1.0  0.15452  0.53704  0.37851  1.0000
  N   N2        1.0  0.15508  0.59111  0.33299  1.0000
  C   C11       1.0  0.14456  0.57401  0.33831  1.0000
  C   C12       1.0  0.07328  0.54527  0.30146  1.0000
  H   H8        1.0  0.06937  0.55145  0.26225  1.0000
  H   H9        1.0  0.19781  0.52311  0.42868  1.0000
  C   C13       1.0  0.43414  0.56010  0.33247  1.0000
  C   C14       1.0  0.44878  0.53873  0.31430  1.0000
  C   C15       1.0  0.43107  0.53196  0.30834  1.0000
  C   C16       1.0  0.42390  0.54243  0.31766  1.0000
  C   C17       1.0  0.37302  0.54944  0.32458  1.0000
  C   C18       1.0  0.35547  0.54290  0.31316  1.0000
  C   C19       1.0  0.46766  0.64240  0.37812  1.0000
  C   C20       1.0  0.45787  0.62461  0.37060  1.0000
  H   H10       1.0  0.42316  0.51929  0.29668  1.0000
  H   H11       1.0  0.41102  0.53691  0.31202  1.0000
  H   H12       1.0  0.37735  0.54104  0.32978  1.0000
  H   H13       1.0  0.34762  0.53005  0.30953  1.0000
  H   H14       1.0  0.48038  0.64785  0.39048  1.0000
  H   H15       1.0  0.46384  0.61770  0.37803  1.0000
  N   N3        1.0  0.40974  0.56420  0.33296  1.0000
  C   C21       1.0  0.42684  0.57078  0.33825  1.0000
  C   C22       1.0  0.45557  0.52823  0.30136  1.0000
  H   H16       1.0  0.44940  0.51814  0.26211  1.0000
  H   H17       1.0  0.47787  0.67494  0.42839  1.0000
  C   C23       1.0  0.44076  0.87423  0.33250  1.0000
  C   C24       1.0  0.46214  0.91025  0.31444  1.0000
  C   C25       1.0  0.46891  0.89930  0.30845  1.0000
  C   C26       1.0  0.45844  0.88166  0.31775  1.0000
  C   C27       1.0  0.45141  0.82377  0.32464  1.0000
  C   C28       1.0  0.45795  0.81274  0.31328  1.0000
  C   C29       1.0  0.35845  0.82542  0.37832  1.0000
  C   C30       1.0  0.37624  0.83344  0.37071  1.0000
  H   H18       1.0  0.48157  0.90406  0.29678  1.0000
  H   H19       1.0  0.46396  0.87430  0.31203  1.0000
  H   H20       1.0  0.45981  0.83647  0.33008  1.0000
  H   H21       1.0  0.47080  0.81774  0.30991  1.0000
  H   H22       1.0  0.35300  0.83268  0.39106  1.0000
  H   H23       1.0  0.38315  0.84631  0.37853  1.0000
  N   N4        1.0  0.43666  0.84574  0.33288  1.0000
  C   C31       1.0  0.43009  0.85626  0.33821  1.0000
  C   C32       1.0  0.47264  0.92754  0.30154  1.0000
  H   H24       1.0  0.48273  0.93146  0.26230  1.0000
  H   H25       1.0  0.32593  0.80303  0.42869  1.0000
  C   C33       1.0  0.87435  0.43392  0.34921  1.0000
  C   C34       1.0  0.91038  0.44828  0.36356  1.0000
  C   C35       1.0  0.89939  0.43054  0.36585  1.0000
  C   C36       1.0  0.88174  0.42351  0.35825  1.0000
  C   C37       1.0  0.82392  0.37300  0.32257  1.0000
  C   C38       1.0  0.81291  0.35543  0.31154  1.0000
  C   C39       1.0  0.82540  0.46748  0.37283  1.0000
  C   C40       1.0  0.83349  0.45777  0.36526  1.0000
  H   H26       1.0  0.90414  0.42252  0.37324  1.0000
  H   H27       1.0  0.87433  0.41059  0.36084  1.0000
  H   H28       1.0  0.83655  0.37726  0.33160  1.0000
  H   H29       1.0  0.81786  0.34751  0.31199  1.0000
  H   H30       1.0  0.83249  0.48000  0.39022  1.0000
  H   H31       1.0  0.84621  0.46358  0.37789  1.0000
  N   N5        1.0  0.84592  0.40967  0.33533  1.0000
  C   C41       1.0  0.85641  0.42674  0.34327  1.0000
  C   C42       1.0  0.92769  0.45492  0.37437  1.0000
  H   H32       1.0  0.93168  0.44854  0.41153  1.0000
  H   H33       1.0  0.80285  0.47729  0.42118  1.0000
  C   C43       1.0  0.56691  0.44064  0.34934  1.0000
  C   C44       1.0  0.55253  0.46228  0.36378  1.0000
  C   C45       1.0  0.57027  0.46905  0.36600  1.0000
  C   C46       1.0  0.57732  0.45844  0.35835  1.0000
  C   C47       1.0  0.62785  0.45120  0.32232  1.0000
  C   C48       1.0  0.64541  0.45779  0.31102  1.0000
  C   C49       1.0  0.53343  0.35813  0.37306  1.0000
  C   C50       1.0  0.54313  0.37593  0.36551  1.0000
  H   H34       1.0  0.57829  0.48182  0.37336  1.0000
  H   H35       1.0  0.59023  0.46396  0.36088  1.0000
  H   H36       1.0  0.62357  0.45956  0.33152  1.0000
  H   H37       1.0  0.65332  0.47065  0.31151  1.0000
  H   H38       1.0  0.52092  0.35269  0.39044  1.0000
  H   H39       1.0  0.53731  0.38284  0.37801  1.0000
  N   N6        1.0  0.59118  0.43649  0.33530  1.0000
  C   C51       1.0  0.57411  0.42989  0.34336  1.0000
  C   C52       1.0  0.54587  0.47294  0.37466  1.0000
  H   H40       1.0  0.55226  0.48331  0.41177  1.0000
  H   H41       1.0  0.52364  0.32577  0.42131  1.0000
  C   C53       1.0  0.56024  0.12647  0.34931  1.0000
  C   C54       1.0  0.53859  0.09044  0.36363  1.0000
  C   C55       1.0  0.53182  0.10142  0.36587  1.0000
  C   C56       1.0  0.54244  0.11908  0.35830  1.0000
  C   C57       1.0  0.54967  0.17683  0.32219  1.0000
  C   C58       1.0  0.54308  0.18780  0.31090  1.0000
  C   C59       1.0  0.64275  0.17547  0.37278  1.0000
  C   C60       1.0  0.62495  0.16738  0.36533  1.0000
  H   H42       1.0  0.51905  0.09667  0.37318  1.0000
  H   H43       1.0  0.53692  0.12647  0.36080  1.0000
  H   H44       1.0  0.54131  0.16419  0.33103  1.0000
  H   H45       1.0  0.53021  0.18283  0.31096  1.0000
  H   H46       1.0  0.64818  0.16838  0.38991  1.0000
  H   H47       1.0  0.61804  0.15464  0.37763  1.0000
  N   N7        1.0  0.56440  0.15489  0.33539  1.0000
  C   C61       1.0  0.57099  0.14441  0.34339  1.0000
  C   C62       1.0  0.52792  0.07313  0.37444  1.0000
  H   H48       1.0  0.51756  0.06914  0.41158  1.0000
  H   H49       1.0  0.67512  0.19795  0.42076  1.0000
  C   C63       1.0  0.95547  0.47689  0.33677  1.0000
  C   C64       1.0  0.96430  0.48700  0.26269  1.0000
  C   C65       1.0  0.98214  0.49619  0.26150  1.0000
  C   C66       1.0  0.99141  0.49554  0.33579  1.0000
  C   C67       1.0  0.03576  0.52351  0.26570  1.0000
  H   H50       1.0  0.04143  0.53029  0.20935  1.0000
  H   H51       1.0  0.95778  0.48762  0.20858  1.0000
  H   H52       1.0  0.98816  0.50332  0.20649  1.0000
  N   N8        1.0  0.93861  0.46864  0.33513  1.0000
  C   C68       1.0  0.52392  0.47877  0.33692  1.0000
  C   C69       1.0  0.51383  0.47750  0.26278  1.0000
  C   C70       1.0  0.50464  0.48615  0.26154  1.0000
  C   C71       1.0  0.50528  0.49607  0.33583  1.0000
  C   C72       1.0  0.47733  0.51245  0.26565  1.0000
  N   N9        1.0  0.48647  0.50443  0.26877  1.0000
  H   H53       1.0  0.47056  0.51135  0.20929  1.0000
  H   H54       1.0  0.51321  0.47035  0.20868  1.0000
  H   H55       1.0  0.49753  0.48505  0.20650  1.0000
  N   N10       1.0  0.53216  0.47015  0.33533  1.0000
  C   C73       1.0  0.52211  0.04535  0.33682  1.0000
  C   C74       1.0  0.52337  0.03653  0.26270  1.0000
  C   C75       1.0  0.51472  0.01868  0.26150  1.0000
  C   C76       1.0  0.50481  0.00941  0.33581  1.0000
  C   C77       1.0  0.48841  0.96507  0.26572  1.0000
  N   N11       1.0  0.49644  0.98224  0.26881  1.0000
  H   H56       1.0  0.48951  0.95939  0.20936  1.0000
  H   H57       1.0  0.53051  0.04304  0.20856  1.0000
  H   H58       1.0  0.51581  0.01266  0.20647  1.0000
  N   N12       1.0  0.53073  0.06221  0.33519  1.0000
  N   N13       1.0  0.27874  0.52754  0.25531  1.0000
  C   C78       1.0  0.29475  0.53017  0.25257  1.0000
  C   C79       1.0  0.25395  0.52514  0.32695  1.0000
  C   C80       1.0  0.24772  0.52815  0.24645  1.0000
  C   C81       1.0  0.23356  0.53043  0.24807  1.0000
  C   C82       1.0  0.22507  0.52916  0.32875  1.0000
  H   H59       1.0  0.25399  0.52985  0.18737  1.0000
  H   H60       1.0  0.22993  0.53377  0.19042  1.0000
  H   H61       1.0  0.30055  0.53201  0.19202  1.0000
  N   N14       1.0  0.21401  0.53458  0.32955  1.0000
  N   N15       1.0  0.47336  0.75142  0.25525  1.0000
  C   C83       1.0  0.47071  0.76478  0.25255  1.0000
  C   C84       1.0  0.47579  0.72904  0.32691  1.0000
  C   C85       1.0  0.47277  0.71980  0.24643  1.0000
  C   C86       1.0  0.47048  0.70335  0.24809  1.0000
  C   C87       1.0  0.47179  0.69614  0.32871  1.0000
  H   H62       1.0  0.47098  0.72432  0.18742  1.0000
  H   H63       1.0  0.46708  0.69637  0.19052  1.0000
  H   H64       1.0  0.46891  0.76879  0.19200  1.0000
  N   N16       1.0  0.46631  0.67966  0.32962  1.0000
  N   N17       1.0  0.24942  0.72212  0.25532  1.0000
  C   C88       1.0  0.23604  0.70611  0.25256  1.0000
  C   C89       1.0  0.27181  0.74690  0.32698  1.0000
  C   C90       1.0  0.28104  0.75313  0.24648  1.0000
  C   C91       1.0  0.29750  0.76729  0.24810  1.0000
  C   C92       1.0  0.30472  0.77577  0.32877  1.0000
  H   H65       1.0  0.27648  0.74687  0.18739  1.0000
  H   H66       1.0  0.30445  0.77092  0.19044  1.0000
  H   H67       1.0  0.23207  0.70031  0.19200  1.0000
  N   N18       1.0  0.32119  0.78682  0.32957  1.0000
  N   N19       1.0  0.72224  0.47378  0.25089  1.0000
  C   C93       1.0  0.70622  0.47111  0.24840  1.0000
  C   C94       1.0  0.74691  0.47577  0.32177  1.0000
  C   C95       1.0  0.75331  0.47332  0.24038  1.0000
  C   C96       1.0  0.76750  0.47107  0.24080  1.0000
  C   C97       1.0  0.77587  0.47185  0.32121  1.0000
  H   H68       1.0  0.74712  0.47192  0.18134  1.0000
  H   H69       1.0  0.77121  0.46808  0.18235  1.0000
  H   H70       1.0  0.70054  0.46970  0.18781  1.0000
  N   N20       1.0  0.78694  0.46646  0.32031  1.0000
  N   N21       1.0  0.52716  0.24870  0.25087  1.0000
  C   C98       1.0  0.52980  0.23533  0.24835  1.0000
  C   C99       1.0  0.52516  0.27137  0.32179  1.0000
  C   C100      1.0  0.52768  0.28026  0.24047  1.0000
  C   C101      1.0  0.52995  0.29671  0.24098  1.0000
  C   C102      1.0  0.52915  0.30426  0.32144  1.0000
  H   H71       1.0  0.52903  0.27544  0.18139  1.0000
  H   H72       1.0  0.53292  0.30341  0.18254  1.0000
  H   H73       1.0  0.53128  0.23111  0.18774  1.0000
  N   N22       1.0  0.53453  0.32073  0.32064  1.0000
  N   N23       1.0  0.75218  0.27864  0.25085  1.0000
  C   C103      1.0  0.76554  0.29466  0.24846  1.0000
  C   C104      1.0  0.72953  0.25393  0.32166  1.0000
  C   C105      1.0  0.72063  0.24758  0.24036  1.0000
  C   C106      1.0  0.70418  0.23342  0.24086  1.0000
  C   C107      1.0  0.69663  0.22501  0.32124  1.0000
  H   H74       1.0  0.72540  0.25381  0.18136  1.0000
  H   H75       1.0  0.69744  0.22975  0.18250  1.0000
  H   H76       1.0  0.76977  0.30039  0.18793  1.0000
  N   N24       1.0  0.68016  0.21397  0.32054  1.0000
  C   C108      1.0  0.18329  0.61636  0.32721  1.0000
  C   C109      1.0  0.17687  0.56069  0.35471  1.0000
  C   C110      1.0  0.11554  0.54896  0.33899  1.0000
  C   C111      1.0  0.09787  0.54176  0.33014  1.0000
  C   C112      1.0  0.20568  0.65197  0.30334  1.0000
  C   C113      1.0  0.21203  0.64067  0.30665  1.0000
  C   C114      1.0  0.20104  0.62322  0.31893  1.0000
  C   C115      1.0  0.19468  0.56815  0.34558  1.0000
  C   C116      1.0  0.20267  0.55843  0.35237  1.0000
  C   C117      1.0  0.19317  0.54079  0.36847  1.0000
  H   H77       1.0  0.20627  0.61556  0.31971  1.0000
  H   H78       1.0  0.22473  0.64500  0.29930  1.0000
  H   H79       1.0  0.20219  0.58086  0.33403  1.0000
  H   H80       1.0  0.21561  0.56449  0.34673  1.0000
  C   C118      1.0  0.16901  0.57084  0.34845  1.0000
  N   N25       1.0  0.17868  0.58796  0.34289  1.0000
  C   C119      1.0  0.17225  0.59851  0.33551  1.0000
  N   N26       1.0  0.15191  0.56419  0.34585  1.0000
  H   H81       1.0  0.12022  0.54097  0.34918  1.0000
  C   C120      1.0  0.20128  0.53146  0.37921  1.0000
  H   H82       1.0  0.09041  0.52885  0.33357  1.0000
  C   C121      1.0  0.21680  0.66889  0.28599  1.0000
  H   H83       1.0  0.22553  0.67167  0.23894  1.0000
  C   C122      1.0  0.38449  0.56715  0.32735  1.0000
  C   C123      1.0  0.44017  0.61640  0.35488  1.0000
  C   C124      1.0  0.45189  0.56679  0.33889  1.0000
  C   C125      1.0  0.45909  0.55633  0.33002  1.0000
  C   C126      1.0  0.34888  0.55394  0.30352  1.0000
  C   C127      1.0  0.36018  0.57159  0.30702  1.0000
  C   C128      1.0  0.37763  0.57805  0.31928  1.0000
  C   C129      1.0  0.43271  0.62675  0.34611  1.0000
  C   C130      1.0  0.44244  0.64447  0.35291  1.0000
  C   C131      1.0  0.46009  0.65260  0.36864  1.0000
  H   H84       1.0  0.38529  0.59094  0.32018  1.0000
  H   H85       1.0  0.35585  0.57996  0.29978  1.0000
  H   H86       1.0  0.42000  0.62156  0.33476  1.0000
  H   H87       1.0  0.43639  0.65135  0.34744  1.0000
  C   C132      1.0  0.43002  0.59839  0.34853  1.0000
  N   N27       1.0  0.41290  0.59094  0.34300  1.0000
  C   C133      1.0  0.40235  0.57397  0.33555  1.0000
  N   N28       1.0  0.43667  0.58794  0.34584  1.0000
  H   H88       1.0  0.45988  0.57947  0.34911  1.0000
  C   C134      1.0  0.46944  0.67004  0.37921  1.0000
  H   H89       1.0  0.47200  0.56177  0.33350  1.0000
  C   C135      1.0  0.33197  0.54814  0.28609  1.0000
  H   H90       1.0  0.32919  0.55409  0.23902  1.0000
  C   C136      1.0  0.43370  0.81753  0.32713  1.0000
  C   C137      1.0  0.38446  0.82396  0.35461  1.0000
  C   C138      1.0  0.43407  0.88529  0.33895  1.0000
  C   C139      1.0  0.44454  0.90296  0.33018  1.0000
  C   C140      1.0  0.44691  0.79512  0.30336  1.0000
  C   C141      1.0  0.42926  0.78878  0.30658  1.0000
  C   C142      1.0  0.42280  0.79978  0.31883  1.0000
  C   C143      1.0  0.37411  0.80615  0.34544  1.0000
  C   C144      1.0  0.35639  0.79816  0.35225  1.0000
  C   C145      1.0  0.34825  0.80766  0.36843  1.0000
  H   H91       1.0  0.40991  0.79455  0.31952  1.0000
  H   H92       1.0  0.42088  0.77608  0.29921  1.0000
  H   H93       1.0  0.37930  0.79864  0.33382  1.0000
  H   H94       1.0  0.34951  0.78523  0.34658  1.0000
  C   C146      1.0  0.40246  0.83182  0.34831  1.0000
  N   N29       1.0  0.40992  0.82215  0.34275  1.0000
  C   C147      1.0  0.42689  0.82857  0.33536  1.0000
  N   N30       1.0  0.41291  0.84892  0.34573  1.0000
  H   H95       1.0  0.42139  0.88061  0.34919  1.0000
  C   C148      1.0  0.33082  0.79955  0.37924  1.0000
  H   H96       1.0  0.43910  0.91043  0.33366  1.0000
  C   C149      1.0  0.45271  0.78400  0.28613  1.0000
  H   H97       1.0  0.44677  0.77529  0.23899  1.0000
  C   C150      1.0  0.81777  0.38455  0.32038  1.0000
  C   C151      1.0  0.82420  0.44028  0.34385  1.0000
  C   C152      1.0  0.88545  0.45170  0.34699  1.0000
  C   C153      1.0  0.90313  0.45877  0.35386  1.0000
  C   C154      1.0  0.79539  0.34889  0.29737  1.0000
  C   C155      1.0  0.78915  0.36029  0.29557  1.0000
  C   C156      1.0  0.80012  0.37776  0.30737  1.0000
  C   C157      1.0  0.80656  0.43301  0.32848  1.0000
  C   C158      1.0  0.79851  0.44268  0.33528  1.0000
  C   C159      1.0  0.80779  0.46009  0.35761  1.0000
  H   H98       1.0  0.79496  0.38547  0.30478  1.0000
  H   H99       1.0  0.77653  0.35601  0.28519  1.0000
  H   H100      1.0  0.79919  0.42045  0.31300  1.0000
  H   H101      1.0  0.78567  0.43672  0.32573  1.0000
  C   C160      1.0  0.83203  0.43009  0.34016  1.0000
  N   N31       1.0  0.82238  0.41300  0.33224  1.0000
  C   C161      1.0  0.82879  0.40239  0.32961  1.0000
  N   N32       1.0  0.84908  0.43662  0.34571  1.0000
  H   H102      1.0  0.88080  0.45981  0.34054  1.0000
  C   C162      1.0  0.79958  0.46929  0.37008  1.0000
  H   H103      1.0  0.91064  0.47169  0.35320  1.0000
  C   C163      1.0  0.78429  0.33191  0.28128  1.0000
  H   H104      1.0  0.77559  0.32897  0.23381  1.0000
  C   C164      1.0  0.61632  0.43350  0.32011  1.0000
  C   C165      1.0  0.56061  0.38415  0.34401  1.0000
  C   C166      1.0  0.54913  0.43394  0.34721  1.0000
  C   C167      1.0  0.54205  0.44454  0.35412  1.0000
  C   C168      1.0  0.65196  0.44682  0.29663  1.0000
  C   C169      1.0  0.64058  0.42918  0.29484  1.0000
  C   C170      1.0  0.62312  0.42266  0.30687  1.0000
  C   C171      1.0  0.56790  0.37379  0.32865  1.0000
  C   C172      1.0  0.55825  0.35607  0.33554  1.0000
  C   C173      1.0  0.54085  0.34793  0.35789  1.0000
  H   H105      1.0  0.61543  0.40978  0.30425  1.0000
  H   H106      1.0  0.64488  0.42085  0.28424  1.0000
  H   H107      1.0  0.58047  0.37900  0.31317  1.0000
  H   H108      1.0  0.56424  0.34921  0.32601  1.0000
  C   C174      1.0  0.57079  0.40217  0.34026  1.0000
  N   N33       1.0  0.58788  0.40963  0.33222  1.0000
  C   C175      1.0  0.59847  0.42665  0.32953  1.0000
  N   N34       1.0  0.56424  0.41268  0.34586  1.0000
  H   H109      1.0  0.54103  0.42118  0.34080  1.0000
  C   C176      1.0  0.53168  0.33052  0.37040  1.0000
  H   H110      1.0  0.52913  0.43912  0.35354  1.0000
  C   C177      1.0  0.66893  0.45273  0.28017  1.0000
  H   H111      1.0  0.67187  0.44709  0.23207  1.0000
  C   C178      1.0  0.56738  0.18302  0.32036  1.0000
  C   C179      1.0  0.61673  0.17666  0.34415  1.0000
  C   C180      1.0  0.56694  0.11539  0.34717  1.0000
  C   C181      1.0  0.55633  0.09770  0.35404  1.0000
  C   C182      1.0  0.55405  0.20533  0.29684  1.0000
  C   C183      1.0  0.57170  0.21161  0.29546  1.0000
  C   C184      1.0  0.57822  0.20067  0.30750  1.0000
  C   C185      1.0  0.62709  0.19431  0.32903  1.0000
  C   C186      1.0  0.64481  0.20237  0.33587  1.0000
  C   C187      1.0  0.65295  0.19309  0.35787  1.0000
  H   H112      1.0  0.59110  0.20587  0.30516  1.0000
  H   H113      1.0  0.58002  0.22424  0.28509  1.0000
  H   H114      1.0  0.62188  0.20168  0.31372  1.0000
  H   H115      1.0  0.65168  0.21522  0.32641  1.0000
  C   C188      1.0  0.59871  0.16882  0.34039  1.0000
  N   N35       1.0  0.59125  0.17845  0.33241  1.0000
  C   C189      1.0  0.57423  0.17202  0.32970  1.0000
  N   N36       1.0  0.58820  0.15176  0.34591  1.0000
  H   H116      1.0  0.57969  0.12004  0.34076  1.0000
  C   C190      1.0  0.67037  0.20131  0.37018  1.0000
  H   H117      1.0  0.56175  0.09020  0.35340  1.0000
  C   C191      1.0  0.54813  0.21638  0.28022  1.0000
  H   H118      1.0  0.55382  0.22499  0.23229  1.0000
  N   N37       1.0  0.98234  0.48583  0.40645  1.0000
  C   C192      1.0  0.96518  0.47671  0.40987  1.0000
  C   C193      1.0  0.03657  0.51323  0.41296  1.0000
  C   C194      1.0  0.04543  0.52336  0.33905  1.0000
  H   H119      1.0  0.04305  0.51262  0.46729  1.0000
  H   H120      1.0  0.95953  0.46999  0.46638  1.0000
  N   N38       1.0  0.06228  0.53171  0.34162  1.0000
  N   N39       1.0  0.51499  0.49670  0.40653  1.0000
  C   C195      1.0  0.52409  0.48864  0.41000  1.0000
  C   C196      1.0  0.49622  0.50507  0.33931  1.0000
  C   C197      1.0  0.49686  0.51496  0.41375  1.0000
  C   C198      1.0  0.48761  0.52355  0.41291  1.0000
  C   C199      1.0  0.47748  0.52228  0.33897  1.0000
  H   H121      1.0  0.50399  0.51606  0.46873  1.0000
  H   H122      1.0  0.48821  0.53065  0.46722  1.0000
  H   H123      1.0  0.53080  0.48971  0.46656  1.0000
  N   N40       1.0  0.46913  0.53078  0.34153  1.0000
  N   N41       1.0  0.50418  0.01848  0.40651  1.0000
  C   C200      1.0  0.51224  0.03565  0.40996  1.0000
  C   C201      1.0  0.49580  0.99134  0.33934  1.0000
  C   C202      1.0  0.48592  0.98210  0.41381  1.0000
  C   C203      1.0  0.47733  0.96426  0.41300  1.0000
  C   C204      1.0  0.47860  0.95540  0.33909  1.0000
  H   H124      1.0  0.48483  0.98814  0.46878  1.0000
  H   H125      1.0  0.47024  0.95778  0.46735  1.0000
  H   H126      1.0  0.51117  0.04130  0.46649  1.0000
  N   N42       1.0  0.47009  0.93855  0.34167  1.0000
  C   C205      1.0  0.30360  0.53188  0.33287  1.0000
  C   C206      1.0  0.29462  0.52914  0.41350  1.0000
  C   C207      1.0  0.27782  0.52597  0.41334  1.0000
  C   C208      1.0  0.26981  0.52556  0.33161  1.0000
  C   C209      1.0  0.23116  0.52539  0.40703  1.0000
  N   N43       1.0  0.24525  0.52390  0.40324  1.0000
  H   H127      1.0  0.22604  0.52517  0.46797  1.0000
  H   H128      1.0  0.30058  0.53043  0.47328  1.0000
  H   H129      1.0  0.27197  0.52496  0.47313  1.0000
  N   N44       1.0  0.32014  0.53725  0.33686  1.0000
  C   C210      1.0  0.46900  0.77192  0.33284  1.0000
  C   C211      1.0  0.47171  0.76567  0.41348  1.0000
  C   C212      1.0  0.47490  0.75205  0.41330  1.0000
  C   C213      1.0  0.47533  0.74446  0.33156  1.0000
  C   C214      1.0  0.47557  0.70601  0.40696  1.0000
  N   N45       1.0  0.47703  0.72158  0.40318  1.0000
  H   H130      1.0  0.47576  0.70110  0.46790  1.0000
  H   H131      1.0  0.47038  0.77031  0.47327  1.0000
  H   H132      1.0  0.47586  0.74718  0.47310  1.0000
  N   N46       1.0  0.46361  0.78308  0.33686  1.0000
  C   C215      1.0  0.22890  0.69726  0.33285  1.0000
  C   C216      1.0  0.23515  0.70622  0.41350  1.0000
  C   C217      1.0  0.24878  0.72303  0.41336  1.0000
  C   C218      1.0  0.25638  0.73104  0.33164  1.0000
  C   C219      1.0  0.29486  0.76968  0.40706  1.0000
  N   N47       1.0  0.27928  0.75559  0.40328  1.0000
  H   H133      1.0  0.29976  0.77480  0.46801  1.0000
  H   H134      1.0  0.23048  0.70025  0.47327  1.0000
  H   H135      1.0  0.25362  0.72886  0.47316  1.0000
  N   N48       1.0  0.21773  0.68071  0.33680  1.0000
  C   C220      1.0  0.69720  0.46884  0.32871  1.0000
  C   C221      1.0  0.70602  0.47106  0.40945  1.0000
  C   C222      1.0  0.72284  0.47426  0.40911  1.0000
  C   C223      1.0  0.73102  0.47525  0.32712  1.0000
  C   C224      1.0  0.76959  0.47507  0.40053  1.0000
  N   N49       1.0  0.75548  0.47652  0.39781  1.0000
  H   H136      1.0  0.77459  0.47487  0.46122  1.0000
  H   H137      1.0  0.69991  0.46929  0.46919  1.0000
  H   H138      1.0  0.72854  0.47483  0.46879  1.0000
  N   N50       1.0  0.68064  0.46340  0.33232  1.0000
  C   C225      1.0  0.53202  0.22854  0.32867  1.0000
  C   C226      1.0  0.52976  0.23511  0.40939  1.0000
  C   C227      1.0  0.52656  0.24873  0.40909  1.0000
  C   C228      1.0  0.52563  0.25597  0.32712  1.0000
  C   C229      1.0  0.52588  0.29474  0.40069  1.0000
  N   N51       1.0  0.52438  0.27916  0.39787  1.0000
  H   H139      1.0  0.52601  0.29990  0.46140  1.0000
  H   H140      1.0  0.53142  0.23070  0.46915  1.0000
  H   H141      1.0  0.52591  0.25381  0.46877  1.0000
  N   N52       1.0  0.53745  0.21742  0.33227  1.0000
  C   C230      1.0  0.77234  0.30362  0.32886  1.0000
  C   C231      1.0  0.76579  0.29475  0.40951  1.0000
  C   C232      1.0  0.75218  0.27794  0.40906  1.0000
  C   C233      1.0  0.74493  0.26981  0.32703  1.0000
  C   C234      1.0  0.70617  0.23123  0.40046  1.0000
  N   N53       1.0  0.72175  0.24533  0.39767  1.0000
  H   H142      1.0  0.70101  0.22620  0.46114  1.0000
  H   H143      1.0  0.77016  0.30083  0.46931  1.0000
  H   H144      1.0  0.74708  0.27220  0.46871  1.0000
  N   N54       1.0  0.78343  0.32018  0.33260  1.0000
