data_image0
_chemical_formula_structural       C16H16CNC3H3OCHCNC3H3OCHC3NC3NC5NC5NC36H26N5C2HCHNC2HCH
_chemical_formula_sum              "C84 H54 N12 O2"
_cell_length_a       34.2351
_cell_length_b       34.2332
_cell_length_c       14.6899
_cell_angle_alpha    90
_cell_angle_beta     90
_cell_angle_gamma    89.934

_space_group_name_H-M_alt    "P 1"
_space_group_IT_number       1

loop_
  _space_group_symop_operation_xyz
  'x, y, z'

loop_
  _atom_site_type_symbol
  _atom_site_label
  _atom_site_symmetry_multiplicity
  _atom_site_fract_x
  _atom_site_fract_y
  _atom_site_fract_z
  _atom_site_occupancy
  C   C1        1.0  0.17989  0.01081  0.28933  1.0000
  C   C2        1.0  0.22104  0.01102  0.28818  1.0000
  C   C3        1.0  0.34750  0.03317  0.30224  1.0000
  C   C4        1.0  0.30633  0.03314  0.30443  1.0000
  C   C5        1.0  0.00961  0.17547  0.29518  1.0000
  C   C6        1.0  0.00948  0.21663  0.29599  1.0000
  C   C7        1.0  0.98788  0.30159  0.32546  1.0000
  C   C8        1.0  0.98750  0.34275  0.32623  1.0000
  C   C9        1.0  0.80777  0.00517  0.29629  1.0000
  C   C10       1.0  0.84893  0.00478  0.29541  1.0000
  C   C11       1.0  0.72267  0.98442  0.32573  1.0000
  C   C12       1.0  0.68152  0.98440  0.32667  1.0000
  C   C13       1.0  0.01584  0.84463  0.28932  1.0000
  C   C14       1.0  0.01586  0.80347  0.28800  1.0000
  C   C15       1.0  0.03672  0.67673  0.30140  1.0000
  C   C16       1.0  0.03711  0.71790  0.30383  1.0000
  H   H1        1.0  0.05340  0.66258  0.25381  1.0000
  H   H2        1.0  0.05469  0.73222  0.25850  1.0000
  H   H3        1.0  0.01610  0.78987  0.22601  1.0000
  H   H4        1.0  0.01668  0.85955  0.22893  1.0000
  H   H5        1.0  0.86321  0.00070  0.23490  1.0000
  H   H6        1.0  0.79344  0.00188  0.23565  1.0000
  H   H7        1.0  0.00565  0.16112  0.23472  1.0000
  H   H8        1.0  0.00591  0.23090  0.23535  1.0000
  H   H9        1.0  0.96692  0.35692  0.28814  1.0000
  H   H10       1.0  0.96734  0.28748  0.28703  1.0000
  H   H11       1.0  0.29184  0.05054  0.25895  1.0000
  H   H12       1.0  0.36149  0.04996  0.25466  1.0000
  H   H13       1.0  0.23470  0.01137  0.22626  1.0000
  H   H14       1.0  0.16501  0.01169  0.22890  1.0000
  H   H15       1.0  0.73661  0.96381  0.28707  1.0000
  H   H16       1.0  0.66717  0.96399  0.28848  1.0000
  C   C17       1.0  0.00633  0.46977  0.34971  1.0000
  N   N1        1.0  0.00609  0.53736  0.30772  1.0000
  C   C18       1.0  0.00416  0.49921  0.28140  1.0000
  C   C19       1.0  0.99993  0.49151  0.18937  1.0000
  C   C20       1.0  0.03133  0.47439  0.13645  1.0000
  H   H17       1.0  0.05510  0.46358  0.17925  1.0000
  H   H18       1.0  0.04331  0.49604  0.08955  1.0000
  H   H19       1.0  0.01995  0.44988  0.09703  1.0000
  O   O1        1.0  0.97373  0.50811  0.14790  1.0000
  C   C21       1.0  0.00191  0.43003  0.33208  1.0000
  H   H20       1.0  0.98806  0.42220  0.27557  1.0000
  C   C22       1.0  0.55471  0.00424  0.35017  1.0000
  N   N2        1.0  0.48710  0.00456  0.30835  1.0000
  C   C23       1.0  0.52523  0.00298  0.28183  1.0000
  C   C24       1.0  0.53283  0.00002  0.18950  1.0000
  C   C25       1.0  0.55028  0.03177  0.13854  1.0000
  H   H21       1.0  0.56061  0.05525  0.18276  1.0000
  H   H22       1.0  0.52897  0.04403  0.09115  1.0000
  H   H23       1.0  0.57516  0.02069  0.09982  1.0000
  O   O2        1.0  0.51689  0.97383  0.14674  1.0000
  C   C26       1.0  0.59443  0.99997  0.33215  1.0000
  H   H24       1.0  0.60224  0.98685  0.27466  1.0000
  C   C27       1.0  0.08726  0.90822  0.37314  1.0000
  C   C28       1.0  0.11585  0.93665  0.37313  1.0000
  C   C29       1.0  0.09764  0.97320  0.37393  1.0000
  N   N3        1.0  0.05875  0.96547  0.37443  1.0000
  C   C30       1.0  0.05080  0.92663  0.37379  1.0000
  C   C31       1.0  0.01415  0.90694  0.37391  1.0000
  C   C32       1.0  0.97719  0.92594  0.37462  1.0000
  N   N4        1.0  0.96967  0.96476  0.37471  1.0000
  C   C33       1.0  0.93090  0.97249  0.37543  1.0000
  C   C34       1.0  0.91234  0.93617  0.37611  1.0000
  C   C35       1.0  0.94080  0.90756  0.37530  1.0000
  C   C36       1.0  0.91212  0.00956  0.37597  1.0000
  C   C37       1.0  0.93205  0.04609  0.37605  1.0000
  N   N5        1.0  0.97094  0.05382  0.37567  1.0000
  C   C38       1.0  0.97889  0.09266  0.37588  1.0000
  C   C39       1.0  0.94244  0.11108  0.37656  1.0000
  C   C40       1.0  0.91385  0.08266  0.37622  1.0000
  C   C41       1.0  0.01554  0.11237  0.37585  1.0000
  C   C42       1.0  0.05249  0.09336  0.37539  1.0000
  N   N6        1.0  0.05999  0.05454  0.37533  1.0000
  C   C43       1.0  0.09875  0.04680  0.37434  1.0000
  C   C44       1.0  0.11735  0.08310  0.37375  1.0000
  C   C45       1.0  0.08891  0.11172  0.37417  1.0000
  C   C46       1.0  0.11754  0.00974  0.37383  1.0000
  C   C47       1.0  0.15931  0.00933  0.37253  1.0000
  C   C48       1.0  0.24320  0.00989  0.36980  1.0000
  C   C49       1.0  0.22206  0.00830  0.45282  1.0000
  C   C50       1.0  0.18089  0.00804  0.45435  1.0000
  C   C51       1.0  0.28528  0.01034  0.36840  1.0000
  C   C52       1.0  0.30759  0.98769  0.43040  1.0000
  C   C53       1.0  0.34876  0.98792  0.42880  1.0000
  C   C54       1.0  0.36939  0.01098  0.36505  1.0000
  C   C55       1.0  0.01533  0.15416  0.37641  1.0000
  C   C56       1.0  0.01518  0.23799  0.37765  1.0000
  C   C57       1.0  0.02094  0.21620  0.45868  1.0000
  C   C58       1.0  0.02097  0.17504  0.45825  1.0000
  C   C59       1.0  0.01499  0.28000  0.37834  1.0000
  C   C60       1.0  0.01441  0.36412  0.37979  1.0000
  C   C61       1.0  0.04122  0.34282  0.43331  1.0000
  C   C62       1.0  0.04161  0.30163  0.43239  1.0000
  C   C63       1.0  0.87033  0.01006  0.37665  1.0000
  C   C64       1.0  0.84953  0.01583  0.45858  1.0000
  C   C65       1.0  0.80838  0.01636  0.45908  1.0000
  C   C66       1.0  0.78649  0.01099  0.37805  1.0000
  C   C67       1.0  0.74448  0.01121  0.37884  1.0000
  C   C68       1.0  0.66037  0.01137  0.38062  1.0000
  C   C69       1.0  0.68188  0.03788  0.43438  1.0000
  C   C70       1.0  0.72306  0.03791  0.43328  1.0000
  C   C71       1.0  0.01436  0.86517  0.37259  1.0000
  C   C72       1.0  0.01289  0.84352  0.45431  1.0000
  C   C73       1.0  0.01446  0.78126  0.36950  1.0000
  C   C74       1.0  0.01296  0.80235  0.45260  1.0000
  C   C75       1.0  0.01449  0.73917  0.36788  1.0000
  C   C76       1.0  0.99157  0.71707  0.42965  1.0000
  C   C77       1.0  0.99140  0.67589  0.42782  1.0000
  C   C78       1.0  0.01428  0.65505  0.36402  1.0000
  H   H25       1.0  0.97373  0.66122  0.47232  1.0000
  H   H26       1.0  0.97376  0.73081  0.47554  1.0000
  H   H27       1.0  0.01267  0.78789  0.51354  1.0000
  H   H28       1.0  0.01192  0.85762  0.51574  1.0000
  H   H29       1.0  0.09273  0.87885  0.37262  1.0000
  H   H30       1.0  0.14519  0.93101  0.37249  1.0000
  H   H31       1.0  0.03897  0.98537  0.37496  1.0000
  H   H32       1.0  0.99072  0.03392  0.37538  1.0000
  H   H33       1.0  0.93535  0.87820  0.37560  1.0000
  H   H34       1.0  0.88296  0.93087  0.37716  1.0000
  H   H35       1.0  0.86426  0.01956  0.51861  1.0000
  H   H36       1.0  0.79449  0.01989  0.52021  1.0000
  H   H37       1.0  0.88453  0.08835  0.37626  1.0000
  H   H38       1.0  0.93694  0.14044  0.37710  1.0000
  H   H39       1.0  0.14674  0.08838  0.37273  1.0000
  H   H40       1.0  0.09439  0.14107  0.37333  1.0000
  H   H41       1.0  0.02504  0.16038  0.51827  1.0000
  H   H42       1.0  0.02444  0.23014  0.51974  1.0000
  H   H43       1.0  0.06220  0.28756  0.47082  1.0000
  H   H44       1.0  0.06107  0.35726  0.47310  1.0000
  H   H45       1.0  0.16675  0.00724  0.51575  1.0000
  H   H46       1.0  0.23647  0.00826  0.51382  1.0000
  H   H47       1.0  0.36360  0.97045  0.47349  1.0000
  H   H48       1.0  0.29402  0.96979  0.47632  1.0000
  H   H49       1.0  0.73730  0.05828  0.47193  1.0000
  H   H50       1.0  0.66759  0.05775  0.47450  1.0000
  N   N7        1.0  0.40834  0.01120  0.35778  1.0000
  N   N8        1.0  0.01416  0.61610  0.35665  1.0000
  N   N9        1.0  0.62132  0.01272  0.38584  1.0000
  N   N10       1.0  0.01553  0.40318  0.38475  1.0000
  N   N11       1.0  0.01051  0.48207  0.43735  1.0000
  C   C79       1.0  0.01277  0.52019  0.46245  1.0000
  C   C80       1.0  0.01026  0.54962  0.39529  1.0000
  H   H51       1.0  0.01559  0.52692  0.52996  1.0000
  C   C81       1.0  0.01035  0.58913  0.41718  1.0000
  H   H52       1.0  0.00750  0.59677  0.48222  1.0000
  N   N12       1.0  0.54244  0.00729  0.43810  1.0000
  C   C82       1.0  0.50432  0.00925  0.46344  1.0000
  C   C83       1.0  0.47486  0.00758  0.39621  1.0000
  H   H53       1.0  0.49762  0.01118  0.53113  1.0000
  C   C84       1.0  0.43537  0.00734  0.41819  1.0000
  H   H54       1.0  0.42777  0.00413  0.48315  1.0000
