data_image0
_chemical_formula_structural       C16H20C16H20C16H20C3H2NHC3H2NHC3H2NHC3H2NHC3H2NHC3H2NHC3NC3NC5NC5NC36H26C4H4C3NC3NC5NC5NC36H26C4H4C3NC3NC5NC5NC36H26C4H4C4NCONH2NHC4NCONH2NHC4NCONH2NHC4NCONH2NHC4NCONH2NHC4NCONH2NH
_chemical_formula_sum              "C264 H186 N36 O6"
_cell_length_a       66.3733
_cell_length_b       66.3733
_cell_length_c       15.0087
_cell_angle_alpha    89.958
_cell_angle_beta     90.042
_cell_angle_gamma    120

_space_group_name_H-M_alt    "P 1"
_space_group_IT_number       1

loop_
  _space_group_symop_operation_xyz
  'x, y, z'

loop_
  _atom_site_type_symbol
  _atom_site_label
  _atom_site_symmetry_multiplicity
  _atom_site_fract_x
  _atom_site_fract_y
  _atom_site_fract_z
  _atom_site_occupancy
  C   C1        1.0  0.09936  0.53607  0.24585  1.0000
  C   C2        1.0  0.11760  0.53110  0.24229  1.0000
  C   C3        1.0  0.18583  0.53543  0.24101  1.0000
  C   C4        1.0  0.16599  0.53788  0.24348  1.0000
  C   C5        1.0  0.09939  0.65677  0.26744  1.0000
  C   C6        1.0  0.11494  0.68087  0.27311  1.0000
  C   C7        1.0  0.13552  0.73288  0.29205  1.0000
  C   C8        1.0  0.15143  0.75692  0.29709  1.0000
  C   C9        1.0  0.94190  0.58960  0.24254  1.0000
  C   C10       1.0  0.96000  0.58441  0.24596  1.0000
  C   C11       1.0  0.89380  0.58357  0.24455  1.0000
  C   C12       1.0  0.87425  0.58652  0.24213  1.0000
  C   C13       1.0  0.95982  0.46381  0.26686  1.0000
  C   C14       1.0  0.94408  0.43975  0.27246  1.0000
  C   C15       1.0  0.90641  0.36369  0.29589  1.0000
  C   C16       1.0  0.92270  0.38763  0.29096  1.0000
  H   H1        1.0  0.90550  0.35315  0.24450  1.0000
  H   H2        1.0  0.93343  0.39363  0.23667  1.0000
  H   H3        1.0  0.93495  0.43133  0.21648  1.0000
  H   H4        1.0  0.96204  0.47211  0.20711  1.0000
  H   H5        1.0  0.96874  0.58525  0.18865  1.0000
  H   H6        1.0  0.93819  0.59433  0.18253  1.0000
  H   H7        1.0  0.09714  0.64855  0.20754  1.0000
  H   H8        1.0  0.12393  0.68940  0.21704  1.0000
  H   H9        1.0  0.15200  0.76740  0.24599  1.0000
  H   H10       1.0  0.12472  0.72675  0.23796  1.0000
  H   H11       1.0  0.16395  0.54733  0.19401  1.0000
  H   H12       1.0  0.19734  0.54290  0.18959  1.0000
  H   H13       1.0  0.12131  0.52640  0.18227  1.0000
  H   H14       1.0  0.09052  0.53513  0.18862  1.0000
  H   H15       1.0  0.89556  0.57392  0.19520  1.0000
  H   H16       1.0  0.86263  0.57915  0.19096  1.0000
  H   H17       1.0  0.18168  0.80106  0.32097  1.0000
  H   H18       1.0  0.22276  0.53116  0.25261  1.0000
  H   H19       1.0  0.83790  0.59176  0.25377  1.0000
  H   H20       1.0  0.87541  0.31975  0.31943  1.0000
  C   C17       1.0  0.55596  0.65806  0.24643  1.0000
  C   C18       1.0  0.56095  0.68128  0.24285  1.0000
  C   C19       1.0  0.55663  0.74518  0.24141  1.0000
  C   C20       1.0  0.55414  0.72287  0.24397  1.0000
  C   C21       1.0  0.43524  0.53733  0.26802  1.0000
  C   C22       1.0  0.41115  0.52880  0.27367  1.0000
  C   C23       1.0  0.35913  0.49737  0.29268  1.0000
  C   C24       1.0  0.33510  0.48925  0.29770  1.0000
  C   C25       1.0  0.50242  0.44708  0.24310  1.0000
  C   C26       1.0  0.50761  0.47036  0.24652  1.0000
  C   C27       1.0  0.50842  0.40498  0.24505  1.0000
  C   C28       1.0  0.50547  0.38249  0.24267  1.0000
  C   C29       1.0  0.62823  0.59083  0.26742  1.0000
  C   C30       1.0  0.65228  0.59914  0.27301  1.0000
  C   C31       1.0  0.72834  0.63747  0.29655  1.0000
  C   C32       1.0  0.70441  0.62984  0.29164  1.0000
  H   H21       1.0  0.73889  0.64714  0.24520  1.0000
  H   H22       1.0  0.69842  0.63462  0.23739  1.0000
  H   H23       1.0  0.66071  0.59847  0.21702  1.0000
  H   H24       1.0  0.61993  0.58479  0.20764  1.0000
  H   H25       1.0  0.50676  0.47828  0.18923  1.0000
  H   H26       1.0  0.49767  0.43865  0.18310  1.0000
  H   H27       1.0  0.44347  0.54331  0.20809  1.0000
  H   H28       1.0  0.40262  0.52925  0.21758  1.0000
  H   H29       1.0  0.32462  0.47934  0.24662  1.0000
  H   H30       1.0  0.36527  0.49269  0.23863  1.0000
  H   H31       1.0  0.54473  0.71141  0.19442  1.0000
  H   H32       1.0  0.54915  0.74924  0.18999  1.0000
  H   H33       1.0  0.56567  0.68971  0.18284  1.0000
  H   H34       1.0  0.55693  0.65019  0.18923  1.0000
  H   H35       1.0  0.51808  0.41640  0.19573  1.0000
  H   H36       1.0  0.51284  0.37824  0.19151  1.0000
  H   H37       1.0  0.29096  0.47537  0.32153  1.0000
  H   H38       1.0  0.56087  0.78637  0.25303  1.0000
  H   H39       1.0  0.50021  0.34088  0.25435  1.0000
  H   H40       1.0  0.77228  0.65036  0.32003  1.0000
  C   C33       1.0  0.43399  0.99270  0.24685  1.0000
  C   C34       1.0  0.41078  0.97446  0.24317  1.0000
  C   C35       1.0  0.34688  0.90624  0.24148  1.0000
  C   C36       1.0  0.36918  0.92607  0.24410  1.0000
  C   C37       1.0  0.55467  0.99266  0.26872  1.0000
  C   C38       1.0  0.56321  0.97711  0.27435  1.0000
  C   C39       1.0  0.59465  0.95652  0.29331  1.0000
  C   C40       1.0  0.60277  0.94061  0.29831  1.0000
  C   C41       1.0  0.64492  0.15009  0.24343  1.0000
  C   C42       1.0  0.62164  0.13200  0.24697  1.0000
  C   C43       1.0  0.68701  0.19819  0.24516  1.0000
  C   C44       1.0  0.70950  0.21773  0.24264  1.0000
  C   C45       1.0  0.50122  0.13218  0.26799  1.0000
  C   C46       1.0  0.49291  0.14793  0.27357  1.0000
  C   C47       1.0  0.45454  0.18561  0.29705  1.0000
  C   C48       1.0  0.46218  0.16932  0.29216  1.0000
  H   H41       1.0  0.44486  0.18650  0.24572  1.0000
  H   H42       1.0  0.45741  0.15857  0.23791  1.0000
  H   H43       1.0  0.49358  0.15704  0.21757  1.0000
  H   H44       1.0  0.50726  0.12995  0.20822  1.0000
  H   H45       1.0  0.61369  0.12324  0.18972  1.0000
  H   H46       1.0  0.65332  0.15378  0.18338  1.0000
  H   H47       1.0  0.54869  0.99493  0.20881  1.0000
  H   H48       1.0  0.56275  0.96814  0.21826  1.0000
  H   H49       1.0  0.61268  0.94006  0.24722  1.0000
  H   H50       1.0  0.59932  0.96735  0.23928  1.0000
  H   H51       1.0  0.38066  0.92812  0.19467  1.0000
  H   H52       1.0  0.34284  0.89473  0.19006  1.0000
  H   H53       1.0  0.40237  0.97077  0.18311  1.0000
  H   H54       1.0  0.44188  0.00155  0.18967  1.0000
  H   H55       1.0  0.67557  0.19644  0.19593  1.0000
  H   H56       1.0  0.71372  0.22936  0.19148  1.0000
  H   H57       1.0  0.61665  0.91034  0.32209  1.0000
  H   H58       1.0  0.30568  0.86930  0.25287  1.0000
  H   H59       1.0  0.75111  0.25408  0.25410  1.0000
  H   H60       1.0  0.44160  0.21661  0.32055  1.0000
  C   C49       1.0  0.22914  0.49835  0.33590  1.0000
  C   C50       1.0  0.26637  0.50502  0.27843  1.0000
  C   C51       1.0  0.24449  0.50274  0.26411  1.0000
  H   H61       1.0  0.24005  0.50506  0.20120  1.0000
  H   H62       1.0  0.27735  0.50880  0.22526  1.0000
  N   N1        1.0  0.20834  0.49903  0.32194  1.0000
  H   H63       1.0  0.19938  0.48892  0.26818  1.0000
  C   C52       1.0  0.59367  0.82553  0.33639  1.0000
  C   C53       1.0  0.58701  0.85611  0.27892  1.0000
  C   C54       1.0  0.58926  0.83650  0.26461  1.0000
  H   H64       1.0  0.58696  0.82977  0.20168  1.0000
  H   H65       1.0  0.58321  0.86332  0.22576  1.0000
  N   N2        1.0  0.59299  0.80405  0.32241  1.0000
  H   H66       1.0  0.60310  0.80522  0.26867  1.0000
  C   C55       1.0  0.26649  0.86291  0.33594  1.0000
  C   C56       1.0  0.23593  0.82570  0.27823  1.0000
  C   C57       1.0  0.25554  0.84759  0.26407  1.0000
  H   H67       1.0  0.26231  0.85204  0.20120  1.0000
  H   H68       1.0  0.22875  0.81474  0.22501  1.0000
  N   N3        1.0  0.28798  0.88371  0.32211  1.0000
  H   H69       1.0  0.28684  0.89269  0.26835  1.0000
  C   C58       1.0  0.83259  0.62535  0.33573  1.0000
  C   C59       1.0  0.79568  0.61954  0.27811  1.0000
  C   C60       1.0  0.81729  0.62120  0.26393  1.0000
  H   H70       1.0  0.82157  0.61864  0.20112  1.0000
  H   H71       1.0  0.78471  0.61594  0.22496  1.0000
  N   N4        1.0  0.85308  0.62407  0.32197  1.0000
  H   H72       1.0  0.86215  0.63397  0.26792  1.0000
  C   C61       1.0  0.46660  0.30197  0.33632  1.0000
  C   C62       1.0  0.47238  0.27087  0.27865  1.0000
  C   C63       1.0  0.47073  0.29083  0.26450  1.0000
  H   H73       1.0  0.47333  0.29771  0.20172  1.0000
  H   H74       1.0  0.47601  0.26354  0.22550  1.0000
  N   N5        1.0  0.46790  0.32375  0.32257  1.0000
  H   H75       1.0  0.45800  0.32294  0.26854  1.0000
  C   C64       1.0  0.79006  0.25938  0.33580  1.0000
  C   C65       1.0  0.82114  0.29627  0.27793  1.0000
  C   C66       1.0  0.80116  0.27465  0.26392  1.0000
  H   H76       1.0  0.79427  0.27037  0.20118  1.0000
  H   H77       1.0  0.82845  0.30722  0.22472  1.0000
  N   N6        1.0  0.76827  0.23890  0.32219  1.0000
  H   H78       1.0  0.76906  0.22982  0.26815  1.0000
  C   C67       1.0  0.02147  0.49238  0.33097  1.0000
  C   C68       1.0  0.04543  0.50543  0.32892  1.0000
  C   C69       1.0  0.05185  0.52895  0.33043  1.0000
  N   N7        1.0  0.03159  0.52926  0.33336  1.0000
  C   C70       1.0  0.01268  0.50760  0.33426  1.0000
  C   C71       1.0  0.98863  0.50064  0.33753  1.0000
  C   C72       1.0  0.97970  0.51611  0.33674  1.0000
  N   N8        1.0  0.99183  0.53960  0.33367  1.0000
  C   C73       1.0  0.97769  0.54879  0.33331  1.0000
  C   C74       1.0  0.95499  0.52995  0.33565  1.0000
  C   C75       1.0  0.95623  0.50982  0.33878  1.0000
  C   C76       1.0  0.98422  0.57267  0.33058  1.0000
  C   C77       1.0  0.00753  0.59152  0.33065  1.0000
  N   N9        1.0  0.02779  0.59121  0.33359  1.0000
  C   C78       1.0  0.04670  0.61287  0.33460  1.0000
  C   C79       1.0  0.03790  0.62809  0.33135  1.0000
  C   C80       1.0  0.01395  0.61504  0.32920  1.0000
  C   C81       1.0  0.07074  0.61983  0.33790  1.0000
  C   C82       1.0  0.07968  0.60437  0.33694  1.0000
  N   N10       1.0  0.06755  0.58088  0.33380  1.0000
  C   C83       1.0  0.08168  0.57169  0.33327  1.0000
  C   C84       1.0  0.10439  0.59054  0.33548  1.0000
  C   C85       1.0  0.10314  0.61067  0.33882  1.0000
  C   C86       1.0  0.07516  0.54780  0.33046  1.0000
  C   C87       1.0  0.09339  0.54239  0.32722  1.0000
  C   C88       1.0  0.13054  0.53248  0.31952  1.0000
  C   C89       1.0  0.12421  0.53863  0.40095  1.0000
  C   C90       1.0  0.10584  0.54342  0.40497  1.0000
  C   C91       1.0  0.14994  0.52873  0.31492  1.0000
  C   C92       1.0  0.15437  0.51669  0.38319  1.0000
  C   C93       1.0  0.17434  0.51442  0.38127  1.0000
  C   C94       1.0  0.19038  0.52383  0.31026  1.0000
  C   C95       1.0  0.08704  0.64410  0.34348  1.0000
  C   C96       1.0  0.11846  0.69303  0.35447  1.0000
  C   C97       1.0  0.10591  0.68009  0.43022  1.0000
  C   C98       1.0  0.09048  0.65598  0.42501  1.0000
  C   C99       1.0  0.13426  0.71752  0.36024  1.0000
  C   C100      1.0  0.16660  0.76642  0.37071  1.0000
  C   C101      1.0  0.16506  0.75125  0.43983  1.0000
  C   C102      1.0  0.14929  0.72722  0.43443  1.0000
  C   C103      1.0  0.96600  0.57810  0.32735  1.0000
  C   C104      1.0  0.95371  0.57726  0.40525  1.0000
  C   C105      1.0  0.93549  0.58227  0.40138  1.0000
  C   C106      1.0  0.92916  0.58846  0.31996  1.0000
  C   C107      1.0  0.90999  0.59259  0.31561  1.0000
  C   C108      1.0  0.87013  0.59847  0.31112  1.0000
  C   C109      1.0  0.88631  0.60771  0.38182  1.0000
  C   C110      1.0  0.90599  0.60497  0.38365  1.0000
  C   C111      1.0  0.97232  0.47636  0.34286  1.0000
  C   C112      1.0  0.96888  0.46439  0.42423  1.0000
  C   C113      1.0  0.94052  0.42751  0.35369  1.0000
  C   C114      1.0  0.95327  0.44032  0.42934  1.0000
  C   C115      1.0  0.92441  0.40308  0.35950  1.0000
  C   C116      1.0  0.90945  0.39356  0.43391  1.0000
  C   C117      1.0  0.89330  0.36963  0.43922  1.0000
  C   C118      1.0  0.89130  0.35438  0.36973  1.0000
  H   H79       1.0  0.88268  0.36346  0.49377  1.0000
  H   H80       1.0  0.90972  0.40405  0.48437  1.0000
  H   H81       1.0  0.95163  0.43217  0.48901  1.0000
  H   H82       1.0  0.97790  0.47308  0.48008  1.0000
  H   H83       1.0  0.01225  0.47461  0.33025  1.0000
  H   H84       1.0  0.05616  0.49853  0.32737  1.0000
  H   H85       1.0  0.03074  0.54326  0.33652  1.0000
  H   H86       1.0  0.02863  0.57721  0.33674  1.0000
  H   H87       1.0  0.94214  0.49340  0.34124  1.0000
  H   H88       1.0  0.93985  0.53045  0.33580  1.0000
  H   H89       1.0  0.95769  0.57263  0.46497  1.0000
  H   H90       1.0  0.92644  0.58067  0.45861  1.0000
  H   H91       1.0  0.00322  0.62194  0.32764  1.0000
  H   H92       1.0  0.04713  0.64587  0.33069  1.0000
  H   H93       1.0  0.11953  0.59005  0.33549  1.0000
  H   H94       1.0  0.11723  0.62709  0.34119  1.0000
  H   H95       1.0  0.08154  0.64721  0.48087  1.0000
  H   H96       1.0  0.10752  0.68817  0.48997  1.0000
  H   H97       1.0  0.14933  0.71680  0.48463  1.0000
  H   H98       1.0  0.17573  0.75755  0.49424  1.0000
  H   H99       1.0  0.10191  0.54810  0.46465  1.0000
  H   H100      1.0  0.13340  0.54043  0.45803  1.0000
  H   H101      1.0  0.17729  0.50616  0.43294  1.0000
  H   H102      1.0  0.14317  0.50959  0.43574  1.0000
  H   H103      1.0  0.91732  0.61199  0.43591  1.0000
  H   H104      1.0  0.88367  0.61624  0.43328  1.0000
  C   C119      1.0  0.18420  0.79162  0.37562  1.0000
  C   C120      1.0  0.21238  0.52309  0.31242  1.0000
  C   C121      1.0  0.87326  0.32931  0.37444  1.0000
  C   C122      1.0  0.84845  0.59980  0.31329  1.0000
  H   H105      1.0  0.18174  0.79873  0.43756  1.0000
  H   H106      1.0  0.22242  0.53354  0.36954  1.0000
  H   H107      1.0  0.83835  0.58960  0.37078  1.0000
  H   H108      1.0  0.87558  0.32196  0.43609  1.0000
  C   C123      1.0  0.59964  0.62385  0.33216  1.0000
  C   C124      1.0  0.58658  0.63475  0.33005  1.0000
  C   C125      1.0  0.56307  0.61765  0.33127  1.0000
  N   N11       1.0  0.56276  0.59708  0.33403  1.0000
  C   C126      1.0  0.58442  0.59983  0.33507  1.0000
  C   C127      1.0  0.59139  0.58275  0.33812  1.0000
  C   C128      1.0  0.57593  0.55835  0.33722  1.0000
  N   N12       1.0  0.55244  0.54698  0.33425  1.0000
  C   C129      1.0  0.54325  0.52366  0.33381  1.0000
  C   C130      1.0  0.56210  0.51980  0.33597  1.0000
  C   C131      1.0  0.58222  0.54117  0.33911  1.0000
  C   C132      1.0  0.51936  0.50629  0.33116  1.0000
  C   C133      1.0  0.50051  0.51075  0.33129  1.0000
  N   N13       1.0  0.50082  0.53131  0.33419  1.0000
  C   C134      1.0  0.47916  0.52856  0.33531  1.0000
  C   C135      1.0  0.46394  0.50454  0.33223  1.0000
  C   C136      1.0  0.47699  0.49365  0.32998  1.0000
  C   C137      1.0  0.47219  0.54564  0.33853  1.0000
  C   C138      1.0  0.48765  0.57004  0.33746  1.0000
  N   N14       1.0  0.51114  0.58140  0.33442  1.0000
  C   C139      1.0  0.52032  0.60473  0.33375  1.0000
  C   C140      1.0  0.50147  0.60858  0.33580  1.0000
  C   C141      1.0  0.48134  0.58721  0.33911  1.0000
  C   C142      1.0  0.54421  0.62210  0.33105  1.0000
  C   C143      1.0  0.54961  0.64574  0.32778  1.0000
  C   C144      1.0  0.55953  0.69280  0.32004  1.0000
  C   C145      1.0  0.55333  0.68028  0.40145  1.0000
  C   C146      1.0  0.54857  0.65713  0.40551  1.0000
  C   C147      1.0  0.56330  0.71596  0.31541  1.0000
  C   C148      1.0  0.57532  0.73240  0.38370  1.0000
  C   C149      1.0  0.57759  0.75464  0.38175  1.0000
  C   C150      1.0  0.56820  0.76130  0.31070  1.0000
  C   C151      1.0  0.44792  0.53766  0.34409  1.0000
  C   C152      1.0  0.39900  0.52016  0.35507  1.0000
  C   C153      1.0  0.41194  0.52055  0.43085  1.0000
  C   C154      1.0  0.43604  0.52923  0.42566  1.0000
  C   C155      1.0  0.37450  0.51147  0.36082  1.0000
  C   C156      1.0  0.32561  0.49492  0.37126  1.0000
  C   C157      1.0  0.34078  0.50855  0.44035  1.0000
  C   C158      1.0  0.36480  0.51680  0.43493  1.0000
  C   C159      1.0  0.51394  0.48265  0.32791  1.0000
  C   C160      1.0  0.51480  0.47117  0.40580  1.0000
  C   C161      1.0  0.50980  0.44795  0.40190  1.0000
  C   C162      1.0  0.50357  0.43545  0.32051  1.0000
  C   C163      1.0  0.49941  0.41214  0.31616  1.0000
  C   C164      1.0  0.49352  0.36640  0.31171  1.0000
  C   C165      1.0  0.48429  0.37332  0.38240  1.0000
  C   C166      1.0  0.48705  0.39576  0.38424  1.0000
  C   C167      1.0  0.61567  0.59071  0.34345  1.0000
  C   C168      1.0  0.62763  0.59917  0.42487  1.0000
  C   C169      1.0  0.66452  0.60775  0.35430  1.0000
  C   C170      1.0  0.65170  0.60762  0.43000  1.0000
  C   C171      1.0  0.68894  0.61606  0.36011  1.0000
  C   C172      1.0  0.69846  0.61056  0.43447  1.0000
  C   C173      1.0  0.72239  0.61833  0.43978  1.0000
  C   C174      1.0  0.73764  0.63161  0.37032  1.0000
  H   H109      1.0  0.72854  0.61382  0.49427  1.0000
  H   H110      1.0  0.68796  0.60030  0.48488  1.0000
  H   H111      1.0  0.65984  0.61408  0.48969  1.0000
  H   H112      1.0  0.61894  0.59946  0.48075  1.0000
  H   H113      1.0  0.61742  0.63241  0.33161  1.0000
  H   H114      1.0  0.59348  0.65239  0.32875  1.0000
  H   H115      1.0  0.54877  0.58223  0.33648  1.0000
  H   H116      1.0  0.51481  0.54616  0.33718  1.0000
  H   H117      1.0  0.59864  0.54350  0.34150  1.0000
  H   H118      1.0  0.56160  0.50416  0.33610  1.0000
  H   H119      1.0  0.51944  0.47977  0.46551  1.0000
  H   H120      1.0  0.51138  0.44048  0.45915  1.0000
  H   H121      1.0  0.47009  0.47601  0.32862  1.0000
  H   H122      1.0  0.44616  0.49599  0.33171  1.0000
  H   H123      1.0  0.50196  0.62421  0.33568  1.0000
  H   H124      1.0  0.46492  0.58487  0.34145  1.0000
  H   H125      1.0  0.44481  0.52905  0.48153  1.0000
  H   H126      1.0  0.40385  0.51407  0.49062  1.0000
  H   H127      1.0  0.37522  0.52725  0.48512  1.0000
  H   H128      1.0  0.33448  0.51292  0.49471  1.0000
  H   H129      1.0  0.54387  0.64850  0.46518  1.0000
  H   H130      1.0  0.55154  0.68766  0.45851  1.0000
  H   H131      1.0  0.58583  0.76582  0.43346  1.0000
  H   H132      1.0  0.58241  0.72828  0.43629  1.0000
  H   H133      1.0  0.48004  0.40005  0.43652  1.0000
  H   H134      1.0  0.47578  0.36215  0.43390  1.0000
  C   C175      1.0  0.30040  0.48732  0.37613  1.0000
  C   C176      1.0  0.56894  0.78404  0.31286  1.0000
  C   C177      1.0  0.76270  0.63861  0.37500  1.0000
  C   C178      1.0  0.49218  0.34338  0.31387  1.0000
  H   H135      1.0  0.29329  0.47774  0.43811  1.0000
  H   H136      1.0  0.55848  0.78360  0.36996  1.0000
  H   H137      1.0  0.50238  0.34346  0.37135  1.0000
  H   H138      1.0  0.77006  0.64823  0.43668  1.0000
  C   C179      1.0  0.46819  0.07055  0.33249  1.0000
  C   C180      1.0  0.45729  0.04660  0.33043  1.0000
  C   C181      1.0  0.47438  0.04018  0.33174  1.0000
  N   N15       1.0  0.49495  0.06044  0.33461  1.0000
  C   C182      1.0  0.49221  0.07935  0.33559  1.0000
  C   C183      1.0  0.50929  0.10340  0.33870  1.0000
  C   C184      1.0  0.53369  0.11233  0.33787  1.0000
  N   N16       1.0  0.54505  0.10020  0.33488  1.0000
  C   C185      1.0  0.56838  0.11434  0.33445  1.0000
  C   C186      1.0  0.57224  0.13704  0.33656  1.0000
  C   C187      1.0  0.55087  0.13580  0.33983  1.0000
  C   C188      1.0  0.58574  0.10781  0.33178  1.0000
  C   C189      1.0  0.58128  0.08450  0.33195  1.0000
  N   N17       1.0  0.56071  0.06424  0.33495  1.0000
  C   C190      1.0  0.56346  0.04533  0.33601  1.0000
  C   C191      1.0  0.58747  0.05413  0.33285  1.0000
  C   C192      1.0  0.59838  0.07808  0.33065  1.0000
  C   C193      1.0  0.54638  0.02129  0.33926  1.0000
  C   C194      1.0  0.52197  0.01235  0.33818  1.0000
  N   N18       1.0  0.51062  0.02448  0.33509  1.0000
  C   C195      1.0  0.48729  0.01034  0.33441  1.0000
  C   C196      1.0  0.48344  0.98764  0.33652  1.0000
  C   C197      1.0  0.50481  0.98888  0.33989  1.0000
  C   C198      1.0  0.46992  0.01687  0.33161  1.0000
  C   C199      1.0  0.44629  0.99864  0.32826  1.0000
  C   C200      1.0  0.39923  0.96150  0.32032  1.0000
  C   C201      1.0  0.41172  0.96779  0.40179  1.0000
  C   C202      1.0  0.43487  0.98617  0.40594  1.0000
  C   C203      1.0  0.37607  0.94210  0.31558  1.0000
  C   C204      1.0  0.35960  0.93766  0.38378  1.0000
  C   C205      1.0  0.33737  0.91769  0.38174  1.0000
  C   C206      1.0  0.33073  0.90167  0.31067  1.0000
  C   C207      1.0  0.55435  0.00499  0.34480  1.0000
  C   C208      1.0  0.57185  0.97356  0.35573  1.0000
  C   C209      1.0  0.57147  0.98609  0.43153  1.0000
  C   C210      1.0  0.56279  0.00152  0.42635  1.0000
  C   C211      1.0  0.58055  0.95776  0.36147  1.0000
  C   C212      1.0  0.59710  0.92541  0.37184  1.0000
  C   C213      1.0  0.58347  0.92693  0.44095  1.0000
  C   C214      1.0  0.57522  0.94271  0.43558  1.0000
  C   C215      1.0  0.60938  0.12603  0.32842  1.0000
  C   C216      1.0  0.62089  0.13834  0.40625  1.0000
  C   C217      1.0  0.64411  0.15657  0.40225  1.0000
  C   C218      1.0  0.65658  0.16286  0.32078  1.0000
  C   C219      1.0  0.67988  0.18201  0.31630  1.0000
  C   C220      1.0  0.72562  0.22187  0.31158  1.0000
  C   C221      1.0  0.71873  0.20571  0.38232  1.0000
  C   C222      1.0  0.69629  0.18603  0.38428  1.0000
  C   C223      1.0  0.50133  0.11971  0.34403  1.0000
  C   C224      1.0  0.49287  0.12319  0.42543  1.0000
  C   C225      1.0  0.48429  0.15152  0.35483  1.0000
  C   C226      1.0  0.48441  0.13880  0.43053  1.0000
  C   C227      1.0  0.47598  0.16763  0.36062  1.0000
  C   C228      1.0  0.48147  0.18262  0.43498  1.0000
  C   C229      1.0  0.47370  0.19878  0.44025  1.0000
  C   C230      1.0  0.46040  0.20075  0.37081  1.0000
  H   H139      1.0  0.47819  0.20941  0.49477  1.0000
  H   H140      1.0  0.49173  0.18237  0.48538  1.0000
  H   H141      1.0  0.47794  0.14046  0.49021  1.0000
  H   H142      1.0  0.49256  0.11418  0.48130  1.0000
  H   H143      1.0  0.45964  0.07978  0.33184  1.0000
  H   H144      1.0  0.43965  0.03586  0.32894  1.0000
  H   H145      1.0  0.50980  0.06129  0.33734  1.0000
  H   H146      1.0  0.54587  0.06340  0.33798  1.0000
  H   H147      1.0  0.54854  0.14989  0.34213  1.0000
  H   H148      1.0  0.58788  0.15218  0.33675  1.0000
  H   H149      1.0  0.61231  0.13439  0.46600  1.0000
  H   H150      1.0  0.65160  0.16563  0.45943  1.0000
  H   H151      1.0  0.61601  0.08881  0.32906  1.0000
  H   H152      1.0  0.59603  0.04490  0.33222  1.0000
  H   H153      1.0  0.46780  0.97250  0.33637  1.0000
  H   H154      1.0  0.50714  0.97480  0.34221  1.0000
  H   H155      1.0  0.56297  0.01045  0.48223  1.0000
  H   H156      1.0  0.57795  0.98446  0.49128  1.0000
  H   H157      1.0  0.56476  0.94265  0.48575  1.0000
  H   H158      1.0  0.57909  0.91623  0.49529  1.0000
  H   H159      1.0  0.44348  0.99007  0.46566  1.0000
  H   H160      1.0  0.40432  0.95860  0.45883  1.0000
  H   H161      1.0  0.32616  0.91473  0.43336  1.0000
  H   H162      1.0  0.36371  0.94884  0.43638  1.0000
  H   H163      1.0  0.69202  0.17472  0.43659  1.0000
  H   H164      1.0  0.72992  0.20836  0.43375  1.0000
  C   C231      1.0  0.60469  0.90780  0.37669  1.0000
  C   C232      1.0  0.30799  0.87967  0.31270  1.0000
  C   C233      1.0  0.45336  0.21879  0.37551  1.0000
  C   C234      1.0  0.74863  0.24355  0.31362  1.0000
  H   H165      1.0  0.61426  0.91024  0.43867  1.0000
  H   H166      1.0  0.30840  0.86962  0.36982  1.0000
  H   H167      1.0  0.74858  0.25365  0.37112  1.0000
  H   H168      1.0  0.44374  0.21649  0.43721  1.0000
  C   C235      1.0  0.23575  0.49566  0.42323  1.0000
  C   C236      1.0  0.25830  0.49838  0.43827  1.0000
  C   C237      1.0  0.27359  0.50303  0.36462  1.0000
  C   C238      1.0  0.26415  0.49699  0.52823  1.0000
  N   N19       1.0  0.24873  0.49274  0.59454  1.0000
  C   C239      1.0  0.22738  0.48970  0.57848  1.0000
  O   O1        1.0  0.28502  0.50033  0.55526  1.0000
  N   N20       1.0  0.22109  0.49132  0.49402  1.0000
  H   H169      1.0  0.21629  0.48657  0.63063  1.0000
  H   H170      1.0  0.20562  0.48924  0.48557  1.0000
  N   N21       1.0  0.29679  0.50764  0.36953  1.0000
  H   H171      1.0  0.30608  0.52052  0.41507  1.0000
  C   C240      1.0  0.59636  0.83481  0.42371  1.0000
  C   C241      1.0  0.59364  0.85462  0.43876  1.0000
  C   C242      1.0  0.58898  0.86528  0.36512  1.0000
  C   C243      1.0  0.59502  0.86183  0.52873  1.0000
  N   N22       1.0  0.59926  0.85063  0.59504  1.0000
  C   C244      1.0  0.60231  0.83233  0.57897  1.0000
  O   O2        1.0  0.59166  0.87933  0.55578  1.0000
  N   N23       1.0  0.60070  0.82446  0.49450  1.0000
  H   H172      1.0  0.60544  0.82435  0.63111  1.0000
  H   H173      1.0  0.60279  0.81107  0.48604  1.0000
  N   N24       1.0  0.58437  0.88387  0.37003  1.0000
  H   H174      1.0  0.57149  0.88027  0.41556  1.0000
  C   C245      1.0  0.25717  0.85627  0.42320  1.0000
  C   C246      1.0  0.23736  0.83372  0.43810  1.0000
  C   C247      1.0  0.22672  0.81845  0.36437  1.0000
  C   C248      1.0  0.23011  0.82783  0.52801  1.0000
  N   N25       1.0  0.24127  0.84323  0.59441  1.0000
  C   C249      1.0  0.25959  0.86459  0.57850  1.0000
  O   O3        1.0  0.21257  0.80696  0.55492  1.0000
  N   N26       1.0  0.26750  0.87091  0.49407  1.0000
  H   H175      1.0  0.26753  0.87567  0.63069  1.0000
  H   H176      1.0  0.28088  0.88638  0.48572  1.0000
  N   N27       1.0  0.20814  0.79524  0.36914  1.0000
  H   H177      1.0  0.21173  0.78594  0.41469  1.0000
  C   C250      1.0  0.82622  0.62843  0.42289  1.0000
  C   C251      1.0  0.80393  0.62631  0.43781  1.0000
  C   C252      1.0  0.78867  0.62188  0.36418  1.0000
  C   C253      1.0  0.79826  0.62803  0.52766  1.0000
  N   N28       1.0  0.81363  0.63203  0.59398  1.0000
  C   C254      1.0  0.83475  0.63450  0.57802  1.0000
  O   O4        1.0  0.77761  0.62526  0.55462  1.0000
  N   N29       1.0  0.84085  0.63254  0.49367  1.0000
  H   H178      1.0  0.84582  0.63747  0.63016  1.0000
  H   H179      1.0  0.85616  0.63421  0.48530  1.0000
  N   N30       1.0  0.76568  0.61789  0.36901  1.0000
  H   H180      1.0  0.75619  0.60517  0.41484  1.0000
  C   C255      1.0  0.46354  0.29249  0.42348  1.0000
  C   C256      1.0  0.46564  0.27230  0.43837  1.0000
  C   C257      1.0  0.47003  0.26147  0.36471  1.0000
  C   C258      1.0  0.46391  0.26488  0.52821  1.0000
  N   N31       1.0  0.45995  0.27624  0.59457  1.0000
  C   C259      1.0  0.45751  0.29492  0.57864  1.0000
  O   O5        1.0  0.46668  0.24699  0.55514  1.0000
  N   N32       1.0  0.45945  0.30299  0.49429  1.0000
  H   H181      1.0  0.45456  0.30301  0.63080  1.0000
  H   H182      1.0  0.45780  0.31664  0.48594  1.0000
  N   N33       1.0  0.47406  0.24250  0.36953  1.0000
  H   H183      1.0  0.48679  0.24573  0.41535  1.0000
  C   C260      1.0  0.79957  0.26579  0.42291  1.0000
  C   C261      1.0  0.81977  0.28807  0.43766  1.0000
  C   C262      1.0  0.83057  0.30330  0.36392  1.0000
  C   C263      1.0  0.82723  0.29377  0.52746  1.0000
  N   N34       1.0  0.81590  0.27843  0.59389  1.0000
  C   C264      1.0  0.79721  0.25732  0.57808  1.0000
  O   O6        1.0  0.84515  0.31441  0.55426  1.0000
  N   N35       1.0  0.78910  0.25119  0.49379  1.0000
  H   H184      1.0  0.78915  0.24627  0.63029  1.0000
  H   H185      1.0  0.77545  0.23589  0.48552  1.0000
  N   N36       1.0  0.84955  0.32630  0.36861  1.0000
  H   H186      1.0  0.84634  0.33579  0.41446  1.0000
