data_image0
_chemical_formula_structural       C2H2C4NCH3C3NCH3C3NCH3CNHCNHCNHC21H13C24H15C24H15C24H15CNHCNHCNHC3NCH3C3NCH3C3NCH3
_chemical_formula_sum              "C126 H84 N12"
_cell_length_a       45.6561
_cell_length_b       45.6562
_cell_length_c       14.968
_cell_angle_alpha    90
_cell_angle_beta     90
_cell_angle_gamma    120

_space_group_name_H-M_alt    "P 1"
_space_group_IT_number       1

loop_
  _space_group_symop_operation_xyz
  'x, y, z'

loop_
  _atom_site_type_symbol
  _atom_site_label
  _atom_site_symmetry_multiplicity
  _atom_site_fract_x
  _atom_site_fract_y
  _atom_site_fract_z
  _atom_site_occupancy
  C   C1        1.0  0.01124  0.03234  0.33512  1.0000
  C   C2        1.0  0.01109  0.97923  0.33514  1.0000
  H   H1        1.0  0.02423  0.05820  0.33474  1.0000
  H   H2        1.0  0.02395  0.96624  0.33477  1.0000
  C   C3        1.0  0.02976  0.01504  0.33506  1.0000
  C   C4        1.0  0.19453  0.09593  0.24517  1.0000
  C   C5        1.0  0.17494  0.08601  0.32505  1.0000
  C   C6        1.0  0.24606  0.12329  0.33005  1.0000
  N   N1        1.0  0.22884  0.11410  0.25150  1.0000
  C   C7        1.0  0.18118  0.08662  0.15305  1.0000
  H   H3        1.0  0.15429  0.06807  0.15102  1.0000
  H   H4        1.0  0.19438  0.07565  0.11802  1.0000
  H   H5        1.0  0.18546  0.10925  0.11724  1.0000
  C   C8        1.0  0.89452  0.09907  0.24516  1.0000
  C   C9        1.0  0.90446  0.08942  0.32504  1.0000
  C   C10       1.0  0.86718  0.12325  0.33005  1.0000
  N   N2        1.0  0.87636  0.11522  0.25150  1.0000
  C   C11       1.0  0.90385  0.09505  0.15305  1.0000
  H   H6        1.0  0.92241  0.08672  0.15103  1.0000
  H   H7        1.0  0.91485  0.11926  0.11809  1.0000
  H   H8        1.0  0.88124  0.07672  0.11717  1.0000
  C   C12       1.0  0.89135  0.79594  0.24520  1.0000
  C   C13       1.0  0.90104  0.81553  0.32508  1.0000
  C   C14       1.0  0.86718  0.74441  0.33007  1.0000
  N   N3        1.0  0.87521  0.76163  0.25152  1.0000
  C   C15       1.0  0.89540  0.80930  0.15309  1.0000
  H   H9        1.0  0.90375  0.83619  0.15107  1.0000
  H   H10       1.0  0.87121  0.79610  0.11807  1.0000
  H   H11       1.0  0.91374  0.80501  0.11726  1.0000
  C   C16       1.0  0.55706  0.16127  0.26698  1.0000
  N   N4        1.0  0.58671  0.16138  0.26179  1.0000
  H   H12       1.0  0.55010  0.17044  0.21370  1.0000
  C   C17       1.0  0.82927  0.39630  0.26708  1.0000
  N   N5        1.0  0.82914  0.42583  0.26181  1.0000
  H   H13       1.0  0.82012  0.38016  0.21379  1.0000
  C   C18       1.0  0.59403  0.43359  0.26684  1.0000
  N   N6        1.0  0.56452  0.40390  0.26174  1.0000
  H   H14       1.0  0.61018  0.44052  0.21358  1.0000
  C   C19       1.0  0.97542  0.01520  0.33508  1.0000
  C   C20       1.0  0.97527  0.96071  0.33510  1.0000
  C   C21       1.0  0.95813  0.97938  0.33514  1.0000
  C   C22       1.0  0.06612  0.03310  0.33362  1.0000
  C   C23       1.0  0.08462  0.06294  0.28226  1.0000
  C   C24       1.0  0.12021  0.08048  0.28025  1.0000
  C   C25       1.0  0.13882  0.06836  0.32747  1.0000
  C   C26       1.0  0.12058  0.03888  0.37990  1.0000
  C   C27       1.0  0.08500  0.02170  0.38307  1.0000
  C   C28       1.0  0.95737  0.03351  0.33363  1.0000
  C   C29       1.0  0.96877  0.06379  0.38307  1.0000
  C   C30       1.0  0.95159  0.08218  0.37992  1.0000
  C   C31       1.0  0.92212  0.07095  0.32746  1.0000
  C   C32       1.0  0.90999  0.04021  0.28025  1.0000
  C   C33       1.0  0.92753  0.02216  0.28226  1.0000
  C   C34       1.0  0.95696  0.92434  0.33367  1.0000
  C   C35       1.0  0.92669  0.90547  0.38315  1.0000
  C   C36       1.0  0.90829  0.86989  0.37998  1.0000
  C   C37       1.0  0.91951  0.85165  0.32751  1.0000
  C   C38       1.0  0.95025  0.87026  0.28031  1.0000
  C   C39       1.0  0.96831  0.90585  0.28232  1.0000
  H   H15       1.0  0.96105  0.10414  0.41583  1.0000
  H   H16       1.0  0.98968  0.07272  0.42306  1.0000
  H   H17       1.0  0.88832  0.03078  0.24310  1.0000
  H   H18       1.0  0.91839  0.00076  0.24418  1.0000
  H   H19       1.0  0.91775  0.91744  0.42310  1.0000
  H   H20       1.0  0.88633  0.85739  0.41589  1.0000
  H   H21       1.0  0.98970  0.91811  0.24421  1.0000
  H   H22       1.0  0.95967  0.85801  0.24315  1.0000
  H   H23       1.0  0.07304  0.00079  0.42306  1.0000
  H   H24       1.0  0.13308  0.02943  0.41583  1.0000
  H   H25       1.0  0.13245  0.10216  0.24311  1.0000
  H   H26       1.0  0.07235  0.07208  0.24418  1.0000
  H   H27       1.0  0.93227  0.96651  0.33478  1.0000
  C   C40       1.0  0.44355  0.25242  0.33007  1.0000
  C   C41       1.0  0.40789  0.23377  0.32890  1.0000
  C   C42       1.0  0.39037  0.19808  0.33687  1.0000
  C   C43       1.0  0.40921  0.18130  0.34673  1.0000
  C   C44       1.0  0.44496  0.19954  0.34910  1.0000
  C   C45       1.0  0.46168  0.23509  0.34006  1.0000
  C   C46       1.0  0.35442  0.17943  0.33519  1.0000
  C   C47       1.0  0.33634  0.18165  0.26135  1.0000
  C   C48       1.0  0.30077  0.16288  0.25926  1.0000
  C   C49       1.0  0.28204  0.14200  0.33190  1.0000
  C   C50       1.0  0.30032  0.14025  0.40621  1.0000
  C   C51       1.0  0.33592  0.15829  0.40736  1.0000
  C   C52       1.0  0.46193  0.28812  0.32390  1.0000
  C   C53       1.0  0.48108  0.30368  0.24648  1.0000
  C   C54       1.0  0.50602  0.33811  0.24715  1.0000
  C   C55       1.0  0.51314  0.35797  0.32561  1.0000
  C   C56       1.0  0.49262  0.34241  0.40166  1.0000
  C   C57       1.0  0.46751  0.30798  0.40109  1.0000
  C   C58       1.0  0.46450  0.18325  0.35760  1.0000
  C   C59       1.0  0.49097  0.19494  0.42103  1.0000
  C   C60       1.0  0.51413  0.18319  0.42011  1.0000
  C   C61       1.0  0.51133  0.15905  0.35641  1.0000
  C   C62       1.0  0.48425  0.14654  0.29472  1.0000
  C   C63       1.0  0.46096  0.15826  0.29575  1.0000
  H   H28       1.0  0.52042  0.34781  0.19089  1.0000
  H   H29       1.0  0.47855  0.28957  0.19078  1.0000
  H   H30       1.0  0.49716  0.35534  0.46056  1.0000
  H   H31       1.0  0.45512  0.29699  0.45935  1.0000
  H   H32       1.0  0.49468  0.21345  0.46575  1.0000
  H   H33       1.0  0.53418  0.19387  0.46336  1.0000
  H   H34       1.0  0.44288  0.15015  0.24690  1.0000
  H   H35       1.0  0.48215  0.12987  0.24599  1.0000
  H   H36       1.0  0.34823  0.15635  0.46222  1.0000
  H   H37       1.0  0.28790  0.12525  0.45986  1.0000
  H   H38       1.0  0.28866  0.16519  0.20448  1.0000
  H   H39       1.0  0.34897  0.19652  0.20765  1.0000
  H   H40       1.0  0.39465  0.24633  0.32264  1.0000
  H   H41       1.0  0.48761  0.24868  0.34020  1.0000
  H   H42       1.0  0.39677  0.15548  0.35243  1.0000
  C   C64       1.0  0.73811  0.19169  0.33003  1.0000
  C   C65       1.0  0.75674  0.17466  0.32886  1.0000
  C   C66       1.0  0.79243  0.19282  0.33684  1.0000
  C   C67       1.0  0.80923  0.22844  0.34672  1.0000
  C   C68       1.0  0.79100  0.24597  0.34909  1.0000
  C   C69       1.0  0.75545  0.22715  0.34004  1.0000
  C   C70       1.0  0.81106  0.17550  0.33518  1.0000
  C   C71       1.0  0.80883  0.15519  0.26135  1.0000
  C   C72       1.0  0.82760  0.13838  0.25927  1.0000
  C   C73       1.0  0.84847  0.14053  0.33190  1.0000
  C   C74       1.0  0.85022  0.16055  0.40622  1.0000
  C   C75       1.0  0.83219  0.17812  0.40737  1.0000
  C   C76       1.0  0.70240  0.17438  0.32385  1.0000
  C   C77       1.0  0.68687  0.17798  0.24637  1.0000
  C   C78       1.0  0.65246  0.16856  0.24712  1.0000
  C   C79       1.0  0.63259  0.15581  0.32556  1.0000
  C   C80       1.0  0.64815  0.15084  0.40162  1.0000
  C   C81       1.0  0.68256  0.16009  0.40104  1.0000
  C   C82       1.0  0.80730  0.28179  0.35761  1.0000
  C   C83       1.0  0.79563  0.29658  0.42105  1.0000
  C   C84       1.0  0.80743  0.33151  0.42024  1.0000
  C   C85       1.0  0.83155  0.35284  0.35650  1.0000
  C   C86       1.0  0.84403  0.33825  0.29474  1.0000
  C   C87       1.0  0.83228  0.30324  0.29573  1.0000
  H   H43       1.0  0.64274  0.17319  0.19080  1.0000
  H   H44       1.0  0.70099  0.18954  0.19068  1.0000
  H   H45       1.0  0.63522  0.14249  0.46054  1.0000
  H   H46       1.0  0.69355  0.15876  0.45938  1.0000
  H   H47       1.0  0.77710  0.28178  0.46574  1.0000
  H   H48       1.0  0.79670  0.34086  0.46338  1.0000
  H   H49       1.0  0.84042  0.29327  0.24696  1.0000
  H   H50       1.0  0.86072  0.35282  0.24607  1.0000
  H   H51       1.0  0.83417  0.19241  0.46219  1.0000
  H   H52       1.0  0.86524  0.16315  0.45984  1.0000
  H   H53       1.0  0.82529  0.12397  0.20447  1.0000
  H   H54       1.0  0.79398  0.15297  0.20763  1.0000
  H   H55       1.0  0.74417  0.14886  0.32259  1.0000
  H   H56       1.0  0.74187  0.23950  0.34017  1.0000
  H   H57       1.0  0.83504  0.24181  0.35244  1.0000
  C   C88       1.0  0.79877  0.54690  0.32989  1.0000
  C   C89       1.0  0.81580  0.58256  0.32878  1.0000
  C   C90       1.0  0.79764  0.60009  0.33679  1.0000
  C   C91       1.0  0.76202  0.58127  0.34662  1.0000
  C   C92       1.0  0.74449  0.54552  0.34891  1.0000
  C   C93       1.0  0.76331  0.52879  0.33982  1.0000
  C   C94       1.0  0.81495  0.63604  0.33515  1.0000
  C   C95       1.0  0.83526  0.65413  0.26133  1.0000
  C   C96       1.0  0.85206  0.68971  0.25925  1.0000
  C   C97       1.0  0.84991  0.70843  0.33191  1.0000
  C   C98       1.0  0.82989  0.69015  0.40622  1.0000
  C   C99       1.0  0.81234  0.65454  0.40736  1.0000
  C   C100      1.0  0.81607  0.52850  0.32362  1.0000
  C   C101      1.0  0.81247  0.50933  0.24625  1.0000
  C   C102      1.0  0.82196  0.48440  0.24699  1.0000
  C   C103      1.0  0.83468  0.47728  0.32548  1.0000
  C   C104      1.0  0.83964  0.49782  0.40150  1.0000
  C   C105      1.0  0.83034  0.52294  0.40087  1.0000
  C   C106      1.0  0.70866  0.52599  0.35736  1.0000
  C   C107      1.0  0.69385  0.49945  0.42059  1.0000
  C   C108      1.0  0.65892  0.47636  0.41977  1.0000
  C   C109      1.0  0.63760  0.47925  0.35619  1.0000
  C   C110      1.0  0.65221  0.50635  0.29455  1.0000
  C   C111      1.0  0.68722  0.52961  0.29564  1.0000
  H   H58       1.0  0.81737  0.47006  0.19065  1.0000
  H   H59       1.0  0.80101  0.51195  0.19042  1.0000
  H   H60       1.0  0.84792  0.49322  0.46051  1.0000
  H   H61       1.0  0.83165  0.53526  0.45920  1.0000
  H   H62       1.0  0.70864  0.49573  0.46535  1.0000
  H   H63       1.0  0.64952  0.45630  0.46300  1.0000
  H   H64       1.0  0.69720  0.54775  0.24692  1.0000
  H   H65       1.0  0.63763  0.50856  0.24603  1.0000
  H   H66       1.0  0.79805  0.64223  0.46218  1.0000
  H   H67       1.0  0.82730  0.70256  0.45986  1.0000
  H   H68       1.0  0.86647  0.70181  0.20447  1.0000
  H   H69       1.0  0.83748  0.64150  0.20760  1.0000
  H   H70       1.0  0.84160  0.59579  0.32253  1.0000
  H   H71       1.0  0.75095  0.50285  0.33988  1.0000
  H   H72       1.0  0.74865  0.59372  0.35235  1.0000
  C   C112      1.0  0.19328  0.09550  0.40627  1.0000
  N   N7        1.0  0.22754  0.11340  0.40645  1.0000
  H   H73       1.0  0.18111  0.08964  0.46654  1.0000
  C   C113      1.0  0.89497  0.09826  0.40626  1.0000
  N   N8        1.0  0.87708  0.11463  0.40645  1.0000
  H   H74       1.0  0.90085  0.09198  0.46653  1.0000
  C   C114      1.0  0.89218  0.79719  0.40630  1.0000
  N   N9        1.0  0.87582  0.76293  0.40647  1.0000
  H   H75       1.0  0.89850  0.80936  0.46657  1.0000
  C   C115      1.0  0.55109  0.14108  0.41853  1.0000
  C   C116      1.0  0.53820  0.15194  0.34721  1.0000
  C   C117      1.0  0.59951  0.15177  0.33049  1.0000
  N   N10       1.0  0.58101  0.14179  0.40710  1.0000
  C   C118      1.0  0.53465  0.12898  0.50658  1.0000
  H   H76       1.0  0.50962  0.12644  0.50968  1.0000
  H   H77       1.0  0.55044  0.14660  0.55851  1.0000
  H   H78       1.0  0.53171  0.10419  0.52051  1.0000
  C   C119      1.0  0.84949  0.41058  0.41859  1.0000
  C   C120      1.0  0.83867  0.38683  0.34730  1.0000
  C   C121      1.0  0.83875  0.44826  0.33046  1.0000
  N   N11       1.0  0.84874  0.43976  0.40710  1.0000
  C   C122      1.0  0.86158  0.40626  0.50666  1.0000
  H   H79       1.0  0.86416  0.38379  0.50980  1.0000
  H   H80       1.0  0.84395  0.40442  0.55857  1.0000
  H   H81       1.0  0.88637  0.42814  0.52059  1.0000
  C   C123      1.0  0.57988  0.43950  0.41849  1.0000
  C   C124      1.0  0.60357  0.45247  0.34705  1.0000
  C   C125      1.0  0.54215  0.39107  0.33051  1.0000
  N   N12       1.0  0.55069  0.40956  0.40713  1.0000
  C   C126      1.0  0.58428  0.45592  0.50660  1.0000
  H   H82       1.0  0.60674  0.48096  0.50964  1.0000
  H   H83       1.0  0.58618  0.44013  0.55841  1.0000
  H   H84       1.0  0.56241  0.45881  0.52074  1.0000
