data_image0
_chemical_formula_structural       C14H12C7NC12H12C2NC3NC3NC15H14C2NC2HNCHC2NC2HNCHCNC2HNCHC2NC2HNCHC2NC2HNCHCNC2HNCHC3NC2NC5NC3NC17H14CNC2NC4NC18H14C2NC19H12C2HC3N2HC2HC3N2HC3HC3N2HC2HC3N2HC2HC3N2HC3HC3N2H
_chemical_formula_sum              "C192 H102 N36"
_cell_length_a       50.1221
_cell_length_b       50.122
_cell_length_c       15.0172
_cell_angle_alpha    90.0312
_cell_angle_beta     89.9688
_cell_angle_gamma    120

_space_group_name_H-M_alt    "P 1"
_space_group_IT_number       1

loop_
  _space_group_symop_operation_xyz
  'x, y, z'

loop_
  _atom_site_type_symbol
  _atom_site_label
  _atom_site_symmetry_multiplicity
  _atom_site_fract_x
  _atom_site_fract_y
  _atom_site_fract_z
  _atom_site_occupancy
  C   C1        1.0  0.95711  0.53987  0.33115  1.0000
  C   C2        1.0  0.08200  0.53047  0.33005  1.0000
  C   C3        1.0  0.09207  0.56251  0.33093  1.0000
  C   C4        1.0  0.12269  0.61393  0.33121  1.0000
  C   C5        1.0  0.12267  0.58644  0.33213  1.0000
  C   C6        1.0  0.13349  0.71174  0.26434  1.0000
  C   C7        1.0  0.11020  0.68059  0.26221  1.0000
  C   C8        1.0  0.10514  0.52172  0.32858  1.0000
  C   C9        1.0  0.14837  0.52126  0.25432  1.0000
  C   C10       1.0  0.12429  0.52796  0.25344  1.0000
  C   C11       1.0  0.93907  0.42177  0.26229  1.0000
  C   C12       1.0  0.91586  0.39059  0.26444  1.0000
  C   C13       1.0  0.92493  0.57438  0.25342  1.0000
  C   C14       1.0  0.90079  0.58100  0.25426  1.0000
  H   H1        1.0  0.88640  0.57396  0.20046  1.0000
  H   H2        1.0  0.92758  0.56363  0.19893  1.0000
  H   H3        1.0  0.99571  0.63766  0.32907  1.0000
  H   H4        1.0  0.95258  0.43017  0.20666  1.0000
  H   H5        1.0  0.91394  0.37739  0.21031  1.0000
  H   H6        1.0  0.05347  0.46472  0.32919  1.0000
  H   H7        1.0  0.14218  0.63509  0.33057  1.0000
  H   H8        1.0  0.14214  0.58474  0.33287  1.0000
  H   H9        1.0  0.12168  0.53872  0.19892  1.0000
  H   H10       1.0  0.16276  0.52824  0.20048  1.0000
  H   H11       1.0  0.09673  0.67220  0.20651  1.0000
  H   H12       1.0  0.13552  0.72493  0.21013  1.0000
  C   C15       1.0  0.44797  0.45823  0.33001  1.0000
  C   C16       1.0  0.45353  0.50564  0.33247  1.0000
  C   C17       1.0  0.53537  0.49395  0.33075  1.0000
  C   C18       1.0  0.59457  0.59457  0.33265  1.0000
  C   C19       1.0  0.60012  0.64198  0.33015  1.0000
  C   C20       1.0  0.54477  0.62824  0.32974  1.0000
  C   C21       1.0  0.51273  0.60627  0.33059  1.0000
  N   N1        1.0  0.49903  0.57518  0.33131  1.0000
  C   C22       1.0  0.46131  0.58546  0.33086  1.0000
  C   C23       1.0  0.48880  0.61294  0.33172  1.0000
  C   C24       1.0  0.36350  0.49844  0.26403  1.0000
  C   C25       1.0  0.39465  0.50630  0.26187  1.0000
  C   C26       1.0  0.55352  0.66012  0.32826  1.0000
  C   C27       1.0  0.56856  0.72349  0.32791  1.0000
  C   C28       1.0  0.55402  0.70381  0.25396  1.0000
  C   C29       1.0  0.54728  0.67301  0.25312  1.0000
  C   C30       1.0  0.65346  0.59398  0.26198  1.0000
  C   C31       1.0  0.68465  0.60195  0.26414  1.0000
  C   C32       1.0  0.50086  0.42723  0.25309  1.0000
  C   C33       1.0  0.49423  0.39646  0.25395  1.0000
  H   H13       1.0  0.50127  0.38910  0.20015  1.0000
  H   H14       1.0  0.51161  0.44060  0.19858  1.0000
  H   H15       1.0  0.43758  0.43475  0.32875  1.0000
  H   H16       1.0  0.64507  0.59906  0.20634  1.0000
  H   H17       1.0  0.69785  0.61320  0.21001  1.0000
  H   H18       1.0  0.61052  0.66545  0.32878  1.0000
  H   H19       1.0  0.44015  0.58379  0.33014  1.0000
  H   H20       1.0  0.49050  0.63411  0.33251  1.0000
  H   H21       1.0  0.53654  0.65964  0.19859  1.0000
  H   H22       1.0  0.54701  0.71119  0.20016  1.0000
  H   H23       1.0  0.40303  0.50120  0.20618  1.0000
  H   H24       1.0  0.35029  0.48725  0.20985  1.0000
  C   C34       1.0  0.61701  0.06645  0.32992  1.0000
  C   C35       1.0  0.56960  0.02460  0.33223  1.0000
  N   N2        1.0  0.56763  0.05062  0.33111  1.0000
  C   C36       1.0  0.60326  0.10807  0.32963  1.0000
  C   C37       1.0  0.58129  0.11813  0.33051  1.0000
  C   C38       1.0  0.48067  0.07670  0.33227  1.0000
  N   N3        1.0  0.48264  0.05068  0.33105  1.0000
  C   C39       1.0  0.43325  0.03484  0.32990  1.0000
  C   C40       1.0  0.44700  0.99323  0.32952  1.0000
  C   C41       1.0  0.46897  0.98317  0.33035  1.0000
  N   N4        1.0  0.50006  0.00056  0.33104  1.0000
  C   C42       1.0  0.48978  0.95255  0.33055  1.0000
  C   C43       1.0  0.46230  0.95257  0.33143  1.0000
  C   C44       1.0  0.55446  0.97000  0.33522  1.0000
  C   C45       1.0  0.56922  0.92151  0.33749  1.0000
  C   C46       1.0  0.57681  0.94175  0.26370  1.0000
  C   C47       1.0  0.56895  0.96504  0.26155  1.0000
  C   C48       1.0  0.41512  0.97010  0.32814  1.0000
  C   C49       1.0  0.35176  0.92177  0.32800  1.0000
  C   C50       1.0  0.37142  0.92685  0.25402  1.0000
  C   C51       1.0  0.40220  0.95095  0.25301  1.0000
  C   C52       1.0  0.48125  0.13617  0.26165  1.0000
  C   C53       1.0  0.47329  0.15939  0.26382  1.0000
  C   C54       1.0  0.64804  0.15034  0.25304  1.0000
  C   C55       1.0  0.69844  0.17965  0.32805  1.0000
  C   C56       1.0  0.67880  0.17448  0.25402  1.0000
  H   H25       1.0  0.68619  0.18886  0.20020  1.0000
  H   H26       1.0  0.63469  0.14770  0.19849  1.0000
  H   H27       1.0  0.64048  0.07954  0.32848  1.0000
  H   H28       1.0  0.54848  0.05063  0.33088  1.0000
  H   H29       1.0  0.50178  0.05067  0.33078  1.0000
  H   H30       1.0  0.47617  0.12267  0.20600  1.0000
  H   H31       1.0  0.46205  0.16133  0.20968  1.0000
  H   H32       1.0  0.40978  0.02177  0.32861  1.0000
  H   H33       1.0  0.49145  0.93306  0.32978  1.0000
  H   H34       1.0  0.44113  0.93309  0.33220  1.0000
  H   H35       1.0  0.41556  0.95352  0.19849  1.0000
  H   H36       1.0  0.36402  0.91245  0.20023  1.0000
  H   H37       1.0  0.57405  0.97851  0.20585  1.0000
  H   H38       1.0  0.58800  0.93972  0.20951  1.0000
  C   C57       1.0  0.31979  0.50080  0.33662  1.0000
  C   C58       1.0  0.30502  0.50079  0.25585  1.0000
  N   N5        1.0  0.27698  0.49868  0.25559  1.0000
  C   C59       1.0  0.26124  0.49651  0.33121  1.0000
  C   C60       1.0  0.23312  0.49645  0.33006  1.0000
  H   H39       1.0  0.31566  0.50401  0.19570  1.0000
  N   N6        1.0  0.21884  0.49617  0.25317  1.0000
  C   C61       1.0  0.19263  0.49778  0.25108  1.0000
  H   H40       1.0  0.18339  0.49693  0.18993  1.0000
  C   C62       1.0  0.57446  0.89572  0.33630  1.0000
  C   C63       1.0  0.57445  0.88092  0.25553  1.0000
  N   N7        1.0  0.57656  0.85498  0.25526  1.0000
  C   C64       1.0  0.57874  0.84144  0.33087  1.0000
  C   C65       1.0  0.57881  0.81339  0.32972  1.0000
  H   H41       1.0  0.57124  0.88832  0.19536  1.0000
  N   N8        1.0  0.57909  0.79936  0.25283  1.0000
  C   C66       1.0  0.57748  0.77154  0.25074  1.0000
  H   H42       1.0  0.57833  0.76312  0.18959  1.0000
  C   C67       1.0  0.19431  0.77021  0.25605  1.0000
  N   N9        1.0  0.22024  0.79826  0.25573  1.0000
  C   C68       1.0  0.23380  0.81401  0.33131  1.0000
  C   C69       1.0  0.26185  0.84213  0.33008  1.0000
  H   H43       1.0  0.18689  0.75956  0.19590  1.0000
  N   N10       1.0  0.27586  0.85640  0.25315  1.0000
  C   C70       1.0  0.30368  0.88259  0.25098  1.0000
  H   H44       1.0  0.31208  0.89183  0.18980  1.0000
  C   C71       1.0  0.72848  0.59988  0.33678  1.0000
  C   C72       1.0  0.74340  0.60013  0.25601  1.0000
  N   N11       1.0  0.77154  0.60246  0.25578  1.0000
  C   C73       1.0  0.78726  0.60467  0.33141  1.0000
  C   C74       1.0  0.81552  0.60501  0.33025  1.0000
  H   H45       1.0  0.73278  0.59686  0.19582  1.0000
  N   N12       1.0  0.82994  0.60553  0.25335  1.0000
  C   C75       1.0  0.85628  0.60417  0.25123  1.0000
  H   H46       1.0  0.86563  0.60518  0.19010  1.0000
  C   C76       1.0  0.47540  0.20533  0.33645  1.0000
  C   C77       1.0  0.47516  0.21999  0.25569  1.0000
  N   N13       1.0  0.47279  0.24577  0.25545  1.0000
  C   C78       1.0  0.47057  0.25929  0.33109  1.0000
  C   C79       1.0  0.47022  0.28721  0.32994  1.0000
  H   H47       1.0  0.47839  0.21259  0.19548  1.0000
  N   N14       1.0  0.46969  0.30109  0.25305  1.0000
  C   C80       1.0  0.47104  0.32878  0.25093  1.0000
  H   H48       1.0  0.47005  0.33710  0.18980  1.0000
  C   C81       1.0  0.85530  0.33185  0.25621  1.0000
  N   N15       1.0  0.82950  0.30369  0.25591  1.0000
  C   C82       1.0  0.81595  0.28796  0.33151  1.0000
  C   C83       1.0  0.78804  0.25970  0.33029  1.0000
  H   H49       1.0  0.86268  0.34246  0.19602  1.0000
  N   N16       1.0  0.77419  0.24529  0.25336  1.0000
  C   C84       1.0  0.74649  0.21895  0.25115  1.0000
  H   H50       1.0  0.73819  0.20962  0.19000  1.0000
  C   C85       1.0  0.00879  0.62727  0.33047  1.0000
  C   C86       1.0  0.04051  0.64311  0.33366  1.0000
  C   C87       1.0  0.05064  0.62171  0.33283  1.0000
  N   N17       1.0  0.02462  0.59371  0.33170  1.0000
  C   C88       1.0  0.99862  0.59572  0.33088  1.0000
  C   C89       1.0  0.96718  0.57191  0.33019  1.0000
  N   N18       1.0  0.97450  0.52617  0.33184  1.0000
  C   C90       1.0  0.95708  0.49508  0.33261  1.0000
  C   C91       1.0  0.92649  0.48845  0.33151  1.0000
  C   C92       1.0  0.92651  0.51594  0.33239  1.0000
  C   C93       1.0  0.96710  0.47308  0.33368  1.0000
  C   C94       1.0  0.99853  0.48067  0.33289  1.0000
  N   N19       1.0  0.02456  0.50866  0.33162  1.0000
  C   C95       1.0  0.05056  0.50666  0.33079  1.0000
  C   C96       1.0  0.04039  0.47511  0.33038  1.0000
  C   C97       1.0  0.00867  0.45927  0.33378  1.0000
  N   N20       1.0  0.07468  0.57621  0.33165  1.0000
  C   C98       1.0  0.09210  0.60729  0.33242  1.0000
  C   C99       1.0  0.08208  0.62930  0.33354  1.0000
  C   C100      1.0  0.10524  0.66116  0.33589  1.0000
  C   C101      1.0  0.12422  0.67375  0.41146  1.0000
  C   C102      1.0  0.14839  0.70450  0.41152  1.0000
  C   C103      1.0  0.15374  0.72443  0.33811  1.0000
  C   C104      1.0  0.10986  0.50730  0.40280  1.0000
  C   C105      1.0  0.13305  0.49930  0.40157  1.0000
  C   C106      1.0  0.15347  0.50670  0.32826  1.0000
  C   C107      1.0  0.94394  0.44121  0.33595  1.0000
  C   C108      1.0  0.89558  0.37786  0.33817  1.0000
  C   C109      1.0  0.90082  0.39782  0.41150  1.0000
  C   C110      1.0  0.92491  0.42860  0.41144  1.0000
  C   C111      1.0  0.94404  0.58065  0.32862  1.0000
  C   C112      1.0  0.93925  0.59505  0.40283  1.0000
  C   C113      1.0  0.91599  0.60296  0.40160  1.0000
  C   C114      1.0  0.89558  0.59549  0.32826  1.0000
  H   H51       1.0  0.91413  0.61411  0.45613  1.0000
  H   H52       1.0  0.95282  0.60006  0.45826  1.0000
  H   H53       1.0  0.05361  0.66658  0.33538  1.0000
  H   H54       1.0  0.02461  0.57456  0.33152  1.0000
  H   H55       1.0  0.02457  0.52782  0.33140  1.0000
  H   H56       1.0  0.90704  0.51764  0.33315  1.0000
  H   H57       1.0  0.90700  0.46729  0.33082  1.0000
  H   H58       1.0  0.92763  0.44215  0.46561  1.0000
  H   H59       1.0  0.88652  0.39064  0.46553  1.0000
  H   H60       1.0  0.99557  0.43581  0.33568  1.0000
  H   H61       1.0  0.09625  0.50231  0.45818  1.0000
  H   H62       1.0  0.13481  0.48809  0.45604  1.0000
  H   H63       1.0  0.16269  0.71163  0.46549  1.0000
  H   H64       1.0  0.12147  0.66019  0.46558  1.0000
  C   C115      1.0  0.43213  0.47411  0.33340  1.0000
  N   N21       1.0  0.48152  0.50761  0.33131  1.0000
  C   C116      1.0  0.47951  0.47961  0.33051  1.0000
  C   C117      1.0  0.50333  0.47197  0.32982  1.0000
  N   N22       1.0  0.54907  0.52504  0.33147  1.0000
  C   C118      1.0  0.58016  0.53870  0.33225  1.0000
  C   C119      1.0  0.58679  0.51475  0.33115  1.0000
  C   C120      1.0  0.55929  0.48727  0.33200  1.0000
  C   C121      1.0  0.60216  0.57073  0.33337  1.0000
  N   N23       1.0  0.56657  0.59260  0.33141  1.0000
  C   C122      1.0  0.56858  0.62061  0.33054  1.0000
  C   C123      1.0  0.61596  0.62610  0.33359  1.0000
  C   C124      1.0  0.46795  0.56151  0.33204  1.0000
  C   C125      1.0  0.44594  0.52948  0.33318  1.0000
  C   C126      1.0  0.41408  0.52079  0.33554  1.0000
  C   C127      1.0  0.40150  0.52720  0.41114  1.0000
  C   C128      1.0  0.37075  0.52062  0.41122  1.0000
  C   C129      1.0  0.35081  0.50602  0.33783  1.0000
  C   C130      1.0  0.56794  0.67929  0.40248  1.0000
  C   C131      1.0  0.57594  0.71048  0.40125  1.0000
  C   C132      1.0  0.63403  0.57944  0.33563  1.0000
  C   C133      1.0  0.69737  0.59443  0.33790  1.0000
  C   C134      1.0  0.67742  0.57976  0.41125  1.0000
  C   C135      1.0  0.64664  0.57306  0.41116  1.0000
  C   C136      1.0  0.49458  0.44009  0.32827  1.0000
  C   C137      1.0  0.48018  0.42093  0.40249  1.0000
  C   C138      1.0  0.47228  0.38977  0.40128  1.0000
  C   C139      1.0  0.47975  0.37680  0.32796  1.0000
  H   H65       1.0  0.46112  0.37677  0.45582  1.0000
  H   H66       1.0  0.47518  0.42952  0.45790  1.0000
  H   H67       1.0  0.40866  0.46374  0.33501  1.0000
  H   H68       1.0  0.50068  0.52676  0.33112  1.0000
  H   H69       1.0  0.54741  0.57345  0.33115  1.0000
  H   H70       1.0  0.55759  0.46610  0.33281  1.0000
  H   H71       1.0  0.60795  0.51642  0.33050  1.0000
  H   H72       1.0  0.63307  0.56221  0.46527  1.0000
  H   H73       1.0  0.68458  0.57262  0.46523  1.0000
  H   H74       1.0  0.63943  0.63647  0.33525  1.0000
  H   H75       1.0  0.57292  0.67069  0.45787  1.0000
  H   H76       1.0  0.58714  0.72347  0.45574  1.0000
  H   H77       1.0  0.36362  0.52780  0.46523  1.0000
  H   H78       1.0  0.41507  0.53803  0.46525  1.0000
  C   C140      1.0  0.60113  0.03473  0.33315  1.0000
  C   C141      1.0  0.59563  0.07662  0.33034  1.0000
  N   N24       1.0  0.55020  0.10074  0.33119  1.0000
  C   C142      1.0  0.53653  0.11816  0.33195  1.0000
  C   C143      1.0  0.56048  0.14875  0.33083  1.0000
  C   C144      1.0  0.58796  0.14873  0.33173  1.0000
  C   C145      1.0  0.50450  0.10814  0.33301  1.0000
  C   C146      1.0  0.45463  0.02468  0.33026  1.0000
  C   C147      1.0  0.44913  0.06656  0.33324  1.0000
  C   C148      1.0  0.51373  0.98314  0.33173  1.0000
  C   C149      1.0  0.54576  0.99317  0.33287  1.0000
  C   C150      1.0  0.54805  0.95103  0.41081  1.0000
  C   C151      1.0  0.55462  0.92687  0.41089  1.0000
  C   C152      1.0  0.39598  0.96539  0.40241  1.0000
  C   C153      1.0  0.36479  0.94220  0.40128  1.0000
  C   C154      1.0  0.49579  0.13129  0.33530  1.0000
  C   C155      1.0  0.48082  0.17966  0.33757  1.0000
  C   C156      1.0  0.49549  0.17440  0.41093  1.0000
  C   C157      1.0  0.50219  0.15031  0.41082  1.0000
  C   C158      1.0  0.63514  0.13120  0.32818  1.0000
  C   C159      1.0  0.65428  0.13598  0.40246  1.0000
  C   C160      1.0  0.68545  0.15923  0.40135  1.0000
  H   H79       1.0  0.69842  0.16107  0.45590  1.0000
  H   H80       1.0  0.64567  0.12238  0.45784  1.0000
  H   H81       1.0  0.61150  0.02163  0.33468  1.0000
  H   H82       1.0  0.60913  0.16820  0.33255  1.0000
  H   H83       1.0  0.55881  0.16824  0.33016  1.0000
  H   H84       1.0  0.51301  0.14759  0.46495  1.0000
  H   H85       1.0  0.50263  0.18871  0.46491  1.0000
  H   H86       1.0  0.43876  0.07966  0.33500  1.0000
  H   H87       1.0  0.40460  0.97900  0.45778  1.0000
  H   H88       1.0  0.35181  0.94044  0.45582  1.0000
  H   H89       1.0  0.54745  0.91258  0.46490  1.0000
  H   H90       1.0  0.53721  0.95379  0.46493  1.0000
  C   C161      1.0  0.27438  0.49627  0.41433  1.0000
  C   C162      1.0  0.30300  0.49746  0.41614  1.0000
  H   H91       1.0  0.31183  0.49683  0.47690  1.0000
  C   C163      1.0  0.17912  0.50124  0.33028  1.0000
  C   C164      1.0  0.19341  0.50060  0.41140  1.0000
  C   C165      1.0  0.21994  0.49776  0.41207  1.0000
  N   N25       1.0  0.23404  0.49747  0.48905  1.0000
  N   N26       1.0  0.25968  0.49653  0.49013  1.0000
  H   H92       1.0  0.18564  0.50374  0.47119  1.0000
  C   C166      1.0  0.57895  0.85483  0.41401  1.0000
  C   C167      1.0  0.57777  0.88227  0.41582  1.0000
  H   H93       1.0  0.57840  0.89175  0.47657  1.0000
  C   C168      1.0  0.57401  0.75460  0.32994  1.0000
  C   C169      1.0  0.57468  0.76955  0.41106  1.0000
  C   C170      1.0  0.57748  0.79891  0.41174  1.0000
  N   N27       1.0  0.57776  0.81332  0.48871  1.0000
  N   N28       1.0  0.57869  0.83990  0.48980  1.0000
  H   H94       1.0  0.57148  0.75865  0.47085  1.0000
  C   C171      1.0  0.17954  0.75545  0.33685  1.0000
  C   C172      1.0  0.22043  0.80088  0.41447  1.0000
  C   C173      1.0  0.19298  0.77225  0.41634  1.0000
  H   H95       1.0  0.18354  0.76341  0.47713  1.0000
  C   C174      1.0  0.32065  0.89611  0.33012  1.0000
  C   C175      1.0  0.30572  0.88186  0.41130  1.0000
  C   C176      1.0  0.27636  0.85532  0.41205  1.0000
  N   N29       1.0  0.26198  0.84122  0.48906  1.0000
  N   N30       1.0  0.23539  0.81558  0.49023  1.0000
  H   H96       1.0  0.31665  0.88960  0.47105  1.0000
  C   C177      1.0  0.77398  0.60467  0.41454  1.0000
  C   C178      1.0  0.74523  0.60323  0.41634  1.0000
  H   H97       1.0  0.73630  0.60370  0.47711  1.0000
  C   C179      1.0  0.86980  0.60074  0.33038  1.0000
  C   C180      1.0  0.85538  0.60115  0.41152  1.0000
  C   C181      1.0  0.82870  0.60372  0.41224  1.0000
  N   N31       1.0  0.81445  0.60376  0.48922  1.0000
  N   N32       1.0  0.78867  0.60445  0.49033  1.0000
  H   H98       1.0  0.86316  0.59801  0.47126  1.0000
  C   C182      1.0  0.47058  0.24605  0.41422  1.0000
  C   C183      1.0  0.47204  0.21875  0.41601  1.0000
  H   H99       1.0  0.47156  0.20937  0.47677  1.0000
  C   C184      1.0  0.47447  0.34576  0.33008  1.0000
  C   C185      1.0  0.47407  0.33096  0.41122  1.0000
  C   C186      1.0  0.47150  0.30170  0.41193  1.0000
  N   N33       1.0  0.47147  0.28744  0.48891  1.0000
  N   N34       1.0  0.47079  0.26098  0.49001  1.0000
  H   H100      1.0  0.47721  0.34189  0.47095  1.0000
  C   C187      1.0  0.86992  0.34676  0.33701  1.0000
  C   C188      1.0  0.82916  0.30125  0.41468  1.0000
  C   C189      1.0  0.85646  0.33000  0.41654  1.0000
  H   H101      1.0  0.86582  0.33892  0.47733  1.0000
  C   C190      1.0  0.72948  0.20542  0.33026  1.0000
  C   C191      1.0  0.74427  0.21980  0.41144  1.0000
  C   C192      1.0  0.77351  0.24651  0.41224  1.0000
  N   N35       1.0  0.78775  0.26076  0.48925  1.0000
  N   N36       1.0  0.81421  0.28654  0.49043  1.0000
  H   H102      1.0  0.73329  0.21205  0.47115  1.0000
